####################################################################### 
# 
# This file contains crystal structure data downloaded from the 
# Cambridge Structural Database (CSD) hosted by the Cambridge 
# Crystallographic Data Centre (CCDC).
# 
# Full information about CCDC data access policies and citation 
# guidelines are available at http://www.ccdc.cam.ac.uk/access/V1 
# 
# Audit and citation data items may have been added by the CCDC. 
# Please retain this information to preserve the provenance of 
# this file and to allow appropriate attribution of the data. 
# 
#######################################################################

data_cc_b08b
_database_code_depnum_ccdc_archive 'CCDC 2101761'
loop_
_audit_author_name
_audit_author_address
'Cynthia S. Day'
;Wake Forest University
United States of America
;
_audit_update_record             
;
2021-08-05 deposited with the CCDC.	2021-12-17 downloaded from the CCDC.
;
_audit_creation_date             2021-08-05
_audit_creation_method           
;
Olex2 1.3
(compiled 2020.11.12 svn.r5f609507 for OlexSys, GUI svn.r6272)
;
_shelx_SHELXL_version_number     2018/3
_audit_contact_author_address    ?
_audit_contact_author_email      ?
_audit_contact_author_phone      ?
_publ_contact_author_id_orcid    ?
_publ_section_references         
;
Dolomanov, O.V., Bourhis, L.J., Gildea, R.J, Howard, J.A.K. & Puschmann, H.
 (2009), J. Appl. Cryst. 42, 339-341.

Sheldrick, G.M. (2015). Acta Cryst. A71, 3-8.

Sheldrick, G.M. (2015). Acta Cryst. C71, 3-8.
;
_chemical_name_common            ?
_chemical_name_systematic        ?
_chemical_formula_moiety         '0.5(C H1.254 Cl1.219), C14 H19 N O, 0.391(Cl)'
_chemical_formula_sum            'C14.50 H19.63 Cl N O'
_chemical_formula_weight         259.39
_chemical_absolute_configuration ?
_chemical_melting_point          ?
loop_
_atom_type_symbol
_atom_type_description
_atom_type_scat_dispersion_real
_atom_type_scat_dispersion_imag
_atom_type_scat_source
C C 0.0033 0.0016 'International Tables Vol C Tables 4.2.6.8 and 6.1.1.4'
H H 0.0000 0.0000 'International Tables Vol C Tables 4.2.6.8 and 6.1.1.4'
Cl Cl 0.1484 0.1585 'International Tables Vol C Tables 4.2.6.8 and 6.1.1.4'
N N 0.0061 0.0033 'International Tables Vol C Tables 4.2.6.8 and 6.1.1.4'
O O 0.0106 0.0060 'International Tables Vol C Tables 4.2.6.8 and 6.1.1.4'

_shelx_space_group_comment       
;
The symmetry employed for this shelxl refinement is uniquely defined
by the following loop, which should always be used as a source of
symmetry information in preference to the above space-group names.
They are only intended as comments.
;
_space_group_crystal_system      monoclinic
_space_group_IT_number           9
_space_group_name_H-M_alt        'C 1 c 1'
_space_group_name_Hall           'C -2yc'
loop_
_space_group_symop_operation_xyz
'x, y, z'
'x, -y, z+1/2'
'x+1/2, y+1/2, z'
'x+1/2, -y+1/2, z+1/2'

_cell_length_a                   17.8880(17)
_cell_length_b                   8.8747(9)
_cell_length_c                   19.0386(19)
_cell_angle_alpha                90
_cell_angle_beta                 111.6350(10)
_cell_angle_gamma                90
_cell_volume                     2809.5(5)
_cell_formula_units_Z            8
_cell_measurement_reflns_used    3764
_cell_measurement_temperature    194(2)
_cell_measurement_theta_max      21.78
_cell_measurement_theta_min      3.93
_shelx_estimated_absorpt_T_max   0.985
_shelx_estimated_absorpt_T_min   0.940
_exptl_absorpt_coefficient_mu    0.259
_exptl_absorpt_correction_T_max  1.0000
_exptl_absorpt_correction_T_min  0.8847
_exptl_absorpt_correction_type   multi-scan
_exptl_absorpt_process_details   
;
SADABS-2016/2 (Bruker,2016) was used for absorption correction.
wR2(int) was 0.0563 before and 0.0470 after correction.
The Ratio of minimum to maximum transmission is 0.8847.
The \l/2 correction factor is Not present.
;
_exptl_absorpt_special_details   ?
_exptl_crystal_colour            colourless
_exptl_crystal_colour_primary    colourless
_exptl_crystal_density_diffrn    1.227
_exptl_crystal_density_meas      ?
_exptl_crystal_density_method    ?
_exptl_crystal_description       irregular
_exptl_crystal_F_000             1109
_exptl_crystal_size_max          0.24
_exptl_crystal_size_mid          0.19
_exptl_crystal_size_min          0.06
_exptl_transmission_factor_max   ?
_exptl_transmission_factor_min   ?
_diffrn_reflns_av_R_equivalents  0.0403
_diffrn_reflns_av_unetI/netI     0.0450
_diffrn_reflns_Laue_measured_fraction_full 0.997
_diffrn_reflns_Laue_measured_fraction_max 0.995
_diffrn_reflns_limit_h_max       22
_diffrn_reflns_limit_h_min       -22
_diffrn_reflns_limit_k_max       11
_diffrn_reflns_limit_k_min       -11
_diffrn_reflns_limit_l_max       24
_diffrn_reflns_limit_l_min       -24
_diffrn_reflns_number            21387
_diffrn_reflns_point_group_measured_fraction_full 0.993
_diffrn_reflns_point_group_measured_fraction_max 0.989
_diffrn_reflns_theta_full        25.242
_diffrn_reflns_theta_max         27.071
_diffrn_reflns_theta_min         3.762
_diffrn_ambient_temperature      193.65
_diffrn_detector_area_resol_mean ?
_diffrn_measured_fraction_theta_full 0.997
_diffrn_measured_fraction_theta_max 0.995
_diffrn_measurement_device_type  'Bruker APEX CCD'
_diffrn_measurement_method       ?
_diffrn_radiation_type           MoK\a
_diffrn_radiation_wavelength     0.71073
_diffrn_source                   ?
_diffrn_source_current           30.0
_diffrn_source_power             1.5
_diffrn_source_voltage           50.0
_reflns_Friedel_coverage         0.986
_reflns_Friedel_fraction_full    0.989
_reflns_Friedel_fraction_max     0.983
_reflns_number_gt                3980
_reflns_number_total             6122
_reflns_special_details          
;
 Reflections were merged by SHELXL according to the crystal
 class for the calculation of statistics and refinement.
 
 _reflns_Friedel_fraction is defined as the number of unique
 Friedel pairs measured divided by the number that would be
 possible theoretically, ignoring centric projections and
 systematic absences.
;
_reflns_threshold_expression     'I > 2\s(I)'
_computing_cell_refinement       'SAINT V8.40B (?, 2016)'
_computing_data_collection       ?
_computing_data_reduction        'SAINT V8.40B (?, 2016)'
_computing_molecular_graphics    'Olex2 1.3 (Dolomanov et al., 2009)'
_computing_publication_material  'Olex2 1.3 (Dolomanov et al., 2009)'
_computing_structure_refinement  'SHELXL 2018/3 (Sheldrick, 2015)'
_computing_structure_solution    'SHELXT 2018/2 (Sheldrick, 2018)'
_refine_diff_density_max         0.520
_refine_diff_density_min         -0.248
_refine_diff_density_rms         0.045
_refine_ls_abs_structure_details 
;
 Flack x determined using 1568 quotients [(I+)-(I-)]/[(I+)+(I-)]
 (Parsons, Flack and Wagner, Acta Cryst. B69 (2013) 249-259).
;
_refine_ls_abs_structure_Flack   0.05(4)
_refine_ls_extinction_coef       .
_refine_ls_extinction_method     none
_refine_ls_goodness_of_fit_ref   1.015
_refine_ls_hydrogen_treatment    constr
_refine_ls_matrix_type           full
_refine_ls_number_parameters     340
_refine_ls_number_reflns         6122
_refine_ls_number_restraints     2
_refine_ls_R_factor_all          0.0910
_refine_ls_R_factor_gt           0.0551
_refine_ls_restrained_S_all      1.015
_refine_ls_shift/su_max          0.001
_refine_ls_shift/su_mean         0.000
_refine_ls_structure_factor_coef Fsqd
_refine_ls_weighting_details     
'w=1/[\s^2^(Fo^2^)+(0.0996P)^2^+0.9319P] where P=(Fo^2^+2Fc^2^)/3'
_refine_ls_weighting_scheme      calc
_refine_ls_wR_factor_gt          0.1560
_refine_ls_wR_factor_ref         0.1801
_refine_special_details          ?
_olex2_refinement_description    
;
1. Fixed Uiso
 At 1.2 times of:
  All C(H) groups, All C(H,H) groups
 At 1.5 times of:
  All C(H,H,H) groups, All O(H) groups
2. Others
 Sof(Cl1)=1-FVAR(1)
 Sof(Cl01)=Sof(H5)=Sof(HA)=FVAR(1)
 Sof(Cl)=1-FVAR(2)
 Sof(Cl02)=FVAR(2)
3.a Ternary CH refined with riding coordinates:
 C00C(H00T), C00N(H00N), C00R(H1), C00S(H00S)
3.b Secondary CH2 refined with riding coordinates:
 C00A(H00O,H00Q), C00H(H00A,H00B), C00I(H00C,H00E), C00L(H00X,H00Y), C00M(H00F,
 H00G), C00Q(H00,H), C00T(H00H,H00I), C00U(H5,HA), C00V(H2,HB)
3.c Aromatic/amide H refined with riding coordinates:
 C009(H009), C00B(H00R), C00D(H00D), C00E(H00U), C00F(H00V), C00J(H00J),
 C00O(H00Z), C00P(H00P), C00W(H00W), C00X(H3)
3.d Idealised Me refined as rotating group:
 C00Y(H4,HC,HD), C00Z(H00K,H00L,H00M)
3.e Idealised tetrahedral OH refined as rotating group:
 O003(H003), O004(H004)
;
_atom_sites_solution_hydrogens   geom
_atom_sites_solution_primary     dual
_atom_sites_solution_secondary   ?
loop_
_atom_site_label
_atom_site_type_symbol
_atom_site_fract_x
_atom_site_fract_y
_atom_site_fract_z
_atom_site_U_iso_or_equiv
_atom_site_adp_type
_atom_site_occupancy
_atom_site_site_symmetry_order
_atom_site_calc_flag
_atom_site_refinement_flags_posn
_atom_site_refinement_flags_adp
_atom_site_refinement_flags_occupancy
_atom_site_disorder_assembly
_atom_site_disorder_group
Cl01 Cl 0.0547(3) 0.1358(16) 0.3433(4) 0.106(2) Uani 0.63(3) 1 d . . P A 2
Cl02 Cl -0.0406(6) 0.0464(15) 0.1904(7) 0.085(3) Uani 0.59(3) 1 d . . P A 2
O003 O -0.1681(2) 0.3537(4) 0.2417(3) 0.0498(11) Uani 1 1 d . . . . .
H003 H -0.196989 0.277662 0.224528 0.075 Uiso 1 1 calc R U . . .
O004 O -0.3376(2) -0.1437(4) 0.2481(3) 0.0457(10) Uani 1 1 d . . . . .
H004 H -0.309155 -0.206677 0.279575 0.069 Uiso 1 1 calc R U . . .
N005 N -0.2340(3) 0.6209(5) 0.3281(3) 0.0456(13) Uani 1 1 d . . . . .
N006 N -0.2719(3) 0.1182(5) 0.1616(3) 0.0425(12) Uani 1 1 d . . . . .
C007 C -0.2895(3) -0.0204(6) 0.2440(4) 0.0397(13) Uani 1 1 d . . . . .
C008 C -0.2381(3) 0.0318(5) 0.3210(4) 0.0366(12) Uani 1 1 d . . . . .
C009 C -0.3529(3) 0.5508(7) 0.1441(3) 0.0425(14) Uani 1 1 d . . . . .
H009 H -0.378949 0.532886 0.178710 0.051 Uiso 1 1 calc R U . . .
C00A C -0.2479(3) -0.0380(6) 0.1853(4) 0.0402(14) Uani 1 1 d . . . . .
H00O H -0.188983 -0.053297 0.208313 0.048 Uiso 1 1 calc R U . . .
H00Q H -0.273467 -0.113935 0.145575 0.048 Uiso 1 1 calc R U . . .
C00B C -0.2765(4) 0.0595(7) 0.3715(4) 0.0517(16) Uani 1 1 d . . . . .
H00R H -0.333141 0.049340 0.356094 0.062 Uiso 1 1 calc R U . . .
C00C C -0.3378(3) 0.1080(6) 0.1919(4) 0.0420(13) Uani 1 1 d . . . . .
H00T H -0.340087 0.199846 0.221499 0.050 Uiso 1 1 calc R U . . .
C00D C -0.3597(5) 0.6194(8) 0.0226(4) 0.066(2) Uani 1 1 d . . . . .
H00D H -0.390343 0.650484 -0.027526 0.079 Uiso 1 1 calc R U . . .
C00E C -0.1558(4) 0.0563(6) 0.3448(4) 0.0428(14) Uani 1 1 d . . . . .
H00U H -0.129125 0.042471 0.310412 0.051 Uiso 1 1 calc R U . . .
C00F C -0.2292(6) 0.1034(8) 0.4465(5) 0.072(2) Uani 1 1 d . . . . .
H00V H -0.255351 0.117447 0.481243 0.087 Uiso 1 1 calc R U . . .
C00G C -0.2699(3) 0.5296(6) 0.1680(4) 0.0423(14) Uani 1 1 d . . . . .
C00H C -0.0861(3) 0.5633(7) 0.3530(4) 0.0597(18) Uani 1 1 d . . . . .
H00A H -0.044542 0.585155 0.331603 0.072 Uiso 1 1 calc R U . . .
H00B H -0.085277 0.453859 0.363396 0.072 Uiso 1 1 calc R U . . .
C00I C -0.2577(3) 0.4616(6) 0.3048(3) 0.0418(14) Uani 1 1 d . . . . .
H00C H -0.316548 0.445673 0.281864 0.050 Uiso 1 1 calc R U . . .
H00E H -0.232058 0.386779 0.345115 0.050 Uiso 1 1 calc R U . . .
C00J C -0.3981(4) 0.5971(7) 0.0717(4) 0.0591(17) Uani 1 1 d . . . . .
H00J H -0.454421 0.612893 0.056504 0.071 Uiso 1 1 calc R U . . .
C00K C -0.2172(3) 0.4759(6) 0.2474(4) 0.0405(13) Uani 1 1 d . . . . .
C00L C -0.2887(4) 0.1565(8) 0.0813(4) 0.0613(18) Uani 1 1 d . . . . .
H00X H -0.248291 0.107205 0.064781 0.074 Uiso 1 1 calc R U . . .
H00Y H -0.283893 0.266844 0.076413 0.074 Uiso 1 1 calc R U . . .
C00M C -0.2111(3) 0.6644(7) 0.4061(4) 0.0494(15) Uani 1 1 d . . . . .
H00F H -0.252996 0.627374 0.424287 0.059 Uiso 1 1 calc R U . . .
H00G H -0.211763 0.775835 0.408249 0.059 Uiso 1 1 calc R U . . .
C00N C -0.1681(3) 0.6095(6) 0.2978(4) 0.0523(16) Uani 1 1 d . . . . .
H00N H -0.165609 0.699613 0.267238 0.063 Uiso 1 1 calc R U . . .
C00O C -0.1117(4) 0.1015(7) 0.4196(4) 0.0542(16) Uani 1 1 d . . . . .
H00Z H -0.055249 0.115457 0.434952 0.065 Uiso 1 1 calc R U . . .
C00P C -0.2351(4) 0.5532(7) 0.1136(5) 0.0601(19) Uani 1 1 d . . . . .
H00P H -0.178985 0.535938 0.127936 0.072 Uiso 1 1 calc R U . . .
C00Q C -0.3754(5) 0.1041(8) 0.0289(4) 0.071(2) Uani 1 1 d . . . . .
H00 H -0.388853 0.150786 -0.021547 0.085 Uiso 1 1 calc R U . . .
H H -0.374979 -0.006516 0.022284 0.085 Uiso 1 1 calc R U . . .
C00R C -0.4215(3) 0.0677(7) 0.1327(4) 0.0563(18) Uani 1 1 d . . . . .
H1 H -0.423429 -0.043763 0.124614 0.068 Uiso 1 1 calc R U . . .
C00S C -0.1310(4) 0.6115(8) 0.4606(4) 0.064(2) Uani 1 1 d . . . . .
H00S H -0.131525 0.500349 0.469121 0.077 Uiso 1 1 calc R U . . .
C00T C -0.0691(4) 0.6528(7) 0.4261(5) 0.073(3) Uani 1 1 d . . . . .
H00H H -0.014303 0.629340 0.462314 0.088 Uiso 1 1 calc R U . . .
H00I H -0.071835 0.762106 0.415082 0.088 Uiso 1 1 calc R U . . .
C00U C -0.0011(5) 0.1987(6) 0.2490(6) 0.0722(15) Uani 1 1 d . . . A 2
H5 H -0.045175 0.265889 0.249142 0.087 Uiso 0.63(3) 1 calc R U P A 2
HA H 0.034680 0.256718 0.229815 0.087 Uiso 0.63(3) 1 calc R U P A 2
C00V C -0.4388(4) 0.1426(7) 0.0578(4) 0.070(2) Uani 1 1 d . . . . .
H2 H -0.491652 0.108823 0.021581 0.085 Uiso 1 1 calc R U . . .
HB H -0.440855 0.253257 0.063606 0.085 Uiso 1 1 calc R U . . .
C00W C -0.2759(6) 0.5980(8) 0.0436(4) 0.067(2) Uani 1 1 d . . . . .
H00W H -0.250020 0.615054 0.008808 0.080 Uiso 1 1 calc R U . . .
C00X C -0.1481(5) 0.1264(8) 0.4713(4) 0.067(2) Uani 1 1 d . . . . .
H3 H -0.118165 0.157853 0.521594 0.081 Uiso 1 1 calc R U . . .
C00Y C -0.4840(3) 0.1075(6) 0.1621(4) 0.0666(17) Uani 1 1 d . . . . .
H4 H -0.473129 0.056640 0.210538 0.100 Uiso 1 1 calc R U . . .
HC H -0.536620 0.075750 0.126002 0.100 Uiso 1 1 calc R U . . .
HD H -0.484073 0.216852 0.169371 0.100 Uiso 1 1 calc R U . . .
C00Z C -0.1074(5) 0.6912(9) 0.5301(5) 0.093(2) Uani 1 1 d . . . . .
H00K H -0.109350 0.799821 0.520209 0.139 Uiso 1 1 calc R U . . .
H00L H -0.052481 0.662319 0.562056 0.139 Uiso 1 1 calc R U . . .
H00M H -0.144084 0.666621 0.556033 0.139 Uiso 1 1 calc R U . . .
Cl Cl -0.0579(7) 0.113(3) 0.1584(14) 0.114(5) Uani 0.41(3) 1 d . . P A 1
Cl1 Cl 0.0386(10) 0.060(3) 0.3113(15) 0.113(8) Uani 0.37(3) 1 d . . P A 1

loop_
_atom_site_aniso_label
_atom_site_aniso_U_11
_atom_site_aniso_U_22
_atom_site_aniso_U_33
_atom_site_aniso_U_23
_atom_site_aniso_U_13
_atom_site_aniso_U_12
Cl01 0.075(2) 0.157(6) 0.084(3) -0.012(4) 0.028(2) -0.005(3)
Cl02 0.077(3) 0.097(5) 0.102(5) -0.020(4) 0.055(4) -0.020(3)
O003 0.0268(19) 0.021(2) 0.100(3) -0.001(2) 0.021(2) 0.0011(15)
O004 0.033(2) 0.023(2) 0.079(3) -0.0017(19) 0.0190(19) -0.0072(16)
N005 0.038(3) 0.024(3) 0.068(3) 0.002(2) 0.010(2) -0.002(2)
N006 0.041(3) 0.025(3) 0.059(3) 0.000(2) 0.015(2) -0.004(2)
C007 0.029(3) 0.021(3) 0.069(4) -0.004(3) 0.018(3) -0.005(2)
C008 0.037(3) 0.017(3) 0.059(3) 0.004(3) 0.023(3) 0.001(2)
C009 0.036(3) 0.038(3) 0.052(3) -0.002(3) 0.015(3) 0.001(3)
C00A 0.038(3) 0.024(3) 0.062(4) -0.004(3) 0.022(3) 0.000(2)
C00B 0.059(4) 0.028(3) 0.078(5) -0.009(3) 0.037(3) -0.005(3)
C00C 0.028(3) 0.028(3) 0.069(4) -0.007(3) 0.017(3) -0.001(2)
C00D 0.099(6) 0.037(4) 0.062(4) 0.009(3) 0.033(4) 0.016(4)
C00E 0.041(3) 0.026(3) 0.060(4) -0.003(3) 0.017(3) -0.006(2)
C00F 0.111(7) 0.035(4) 0.101(6) -0.008(4) 0.075(6) -0.006(4)
C00G 0.042(3) 0.020(3) 0.071(4) 0.008(3) 0.027(3) 0.007(3)
C00H 0.031(3) 0.036(4) 0.093(5) 0.001(4) 0.001(3) -0.004(3)
C00I 0.031(3) 0.025(3) 0.058(4) 0.003(3) 0.003(3) -0.003(2)
C00J 0.063(4) 0.040(4) 0.063(4) 0.004(3) 0.010(4) 0.013(3)
C00K 0.026(3) 0.019(3) 0.075(4) 0.004(3) 0.016(3) -0.001(2)
C00L 0.073(5) 0.041(4) 0.059(4) 0.003(3) 0.011(3) -0.008(3)
C00M 0.046(3) 0.028(3) 0.062(4) -0.003(3) 0.006(3) 0.004(2)
C00N 0.036(3) 0.018(3) 0.091(5) 0.007(3) 0.009(3) -0.002(3)
C00O 0.048(4) 0.046(4) 0.061(4) -0.002(3) 0.011(3) -0.007(3)
C00P 0.066(4) 0.029(3) 0.106(6) 0.009(4) 0.055(4) 0.005(3)
C00Q 0.079(5) 0.032(4) 0.077(5) -0.003(3) 0.001(4) -0.002(3)
C00R 0.031(3) 0.028(3) 0.102(5) -0.007(4) 0.016(3) 0.002(3)
C00S 0.059(4) 0.040(4) 0.064(4) -0.012(3) -0.014(3) 0.010(3)
C00T 0.050(4) 0.027(3) 0.108(6) 0.004(4) -0.012(4) -0.002(3)
C00U 0.045(2) 0.068(3) 0.113(4) -0.003(6) 0.040(3) -0.007(5)
C00V 0.048(4) 0.032(4) 0.099(6) -0.003(4) -0.011(4) 0.006(3)
C00W 0.111(7) 0.033(4) 0.069(5) 0.012(3) 0.049(5) 0.008(4)
C00X 0.096(6) 0.042(4) 0.056(4) -0.005(3) 0.020(4) 0.000(4)
C00Y 0.029(2) 0.052(3) 0.113(5) -0.009(3) 0.020(3) 0.007(2)
C00Z 0.087(5) 0.081(5) 0.091(5) 0.011(4) 0.012(4) 0.021(4)
Cl 0.064(4) 0.143(10) 0.148(10) -0.001(11) 0.053(5) -0.004(6)
Cl1 0.070(7) 0.158(14) 0.130(12) 0.041(11) 0.059(8) 0.052(7)

_geom_special_details            
;
 All esds (except the esd in the dihedral angle between two l.s. planes)
 are estimated using the full covariance matrix.  The cell esds are taken
 into account individually in the estimation of esds in distances, angles
 and torsion angles; correlations between esds in cell parameters are only
 used when they are defined by crystal symmetry.  An approximate (isotropic)
 treatment of cell esds is used for estimating esds involving l.s. planes.
;
loop_
_geom_bond_atom_site_label_1
_geom_bond_atom_site_label_2
_geom_bond_distance
_geom_bond_site_symmetry_2
_geom_bond_publ_flag
Cl01 C00U 1.791(11) . ?
Cl02 C00U 1.728(9) . ?
O003 H003 0.8400 . ?
O003 C00K 1.424(6) . ?
O004 H004 0.8400 . ?
O004 C007 1.413(6) . ?
N005 C00I 1.495(7) . ?
N005 C00M 1.440(7) . ?
N005 C00N 1.495(8) . ?
N006 C00A 1.472(7) . ?
N006 C00C 1.495(7) . ?
N006 C00L 1.485(8) . ?
C007 C008 1.488(8) . ?
C007 C00A 1.562(7) . ?
C007 C00C 1.547(8) . ?
C008 C00B 1.393(7) . ?
C008 C00E 1.389(8) . ?
C009 H009 0.9500 . ?
C009 C00G 1.396(8) . ?
C009 C00J 1.378(9) . ?
C00A H00O 0.9900 . ?
C00A H00Q 0.9900 . ?
C00B H00R 0.9500 . ?
C00B C00F 1.419(11) . ?
C00C H00T 1.0000 . ?
C00C C00R 1.548(8) . ?
C00D H00D 0.9500 . ?
C00D C00J 1.364(10) . ?
C00D C00W 1.414(11) . ?
C00E H00U 0.9500 . ?
C00E C00O 1.408(9) . ?
C00F H00V 0.9500 . ?
C00F C00X 1.365(12) . ?
C00G C00K 1.533(9) . ?
C00G C00P 1.408(8) . ?
C00H H00A 0.9900 . ?
C00H H00B 0.9900 . ?
C00H C00N 1.512(9) . ?
C00H C00T 1.532(11) . ?
C00I H00C 0.9900 . ?
C00I H00E 0.9900 . ?
C00I C00K 1.524(8) . ?
C00J H00J 0.9500 . ?
C00K C00N 1.574(8) . ?
C00L H00X 0.9900 . ?
C00L H00Y 0.9900 . ?
C00L C00Q 1.575(10) . ?
C00M H00F 0.9900 . ?
C00M H00G 0.9900 . ?
C00M C00S 1.501(8) . ?
C00N H00N 1.0000 . ?
C00O H00Z 0.9500 . ?
C00O C00X 1.385(10) . ?
C00P H00P 0.9500 . ?
C00P C00W 1.322(10) . ?
C00Q H00 0.9900 . ?
C00Q H 0.9900 . ?
C00Q C00V 1.472(11) . ?
C00R H1 1.0000 . ?
C00R C00V 1.498(10) . ?
C00R C00Y 1.466(8) . ?
C00S H00S 1.0000 . ?
C00S C00T 1.527(11) . ?
C00S C00Z 1.421(10) . ?
C00T H00H 0.9900 . ?
C00T H00I 0.9900 . ?
C00U H5 0.9900 . ?
C00U HA 0.9900 . ?
C00V H2 0.9900 . ?
C00V HB 0.9900 . ?
C00W H00W 0.9500 . ?
C00X H3 0.9500 . ?
C00Y H4 0.9800 . ?
C00Y HC 0.9800 . ?
C00Y HD 0.9800 . ?
C00Z H00K 0.9800 . ?
C00Z H00L 0.9800 . ?
C00Z H00M 0.9800 . ?

loop_
_geom_angle_atom_site_label_1
_geom_angle_atom_site_label_2
_geom_angle_atom_site_label_3
_geom_angle
_geom_angle_site_symmetry_1
_geom_angle_site_symmetry_3
_geom_angle_publ_flag
C00K O003 H003 109.5 . . ?
C007 O004 H004 109.5 . . ?
C00M N005 C00I 120.1(5) . . ?
C00M N005 C00N 116.8(4) . . ?
C00N N005 C00I 89.9(4) . . ?
C00A N006 C00C 90.4(4) . . ?
C00A N006 C00L 117.1(5) . . ?
C00L N006 C00C 121.5(5) . . ?
O004 C007 C008 110.7(5) . . ?
O004 C007 C00A 115.1(4) . . ?
O004 C007 C00C 113.4(4) . . ?
C008 C007 C00A 116.9(4) . . ?
C008 C007 C00C 113.5(4) . . ?
C00C C007 C00A 85.2(4) . . ?
C00B C008 C007 117.0(5) . . ?
C00E C008 C007 124.4(5) . . ?
C00E C008 C00B 118.7(6) . . ?
C00G C009 H009 119.1 . . ?
C00J C009 H009 119.1 . . ?
C00J C009 C00G 121.9(6) . . ?
N006 C00A C007 87.8(4) . . ?
N006 C00A H00O 114.0 . . ?
N006 C00A H00Q 114.0 . . ?
C007 C00A H00O 114.0 . . ?
C007 C00A H00Q 114.0 . . ?
H00O C00A H00Q 111.2 . . ?
C008 C00B H00R 120.7 . . ?
C008 C00B C00F 118.7(6) . . ?
C00F C00B H00R 120.7 . . ?
N006 C00C C007 87.6(4) . . ?
N006 C00C H00T 111.7 . . ?
N006 C00C C00R 114.9(5) . . ?
C007 C00C H00T 111.7 . . ?
C007 C00C C00R 117.3(5) . . ?
C00R C00C H00T 111.7 . . ?
C00J C00D H00D 118.8 . . ?
C00J C00D C00W 122.4(7) . . ?
C00W C00D H00D 118.8 . . ?
C008 C00E H00U 119.8 . . ?
C008 C00E C00O 120.4(6) . . ?
C00O C00E H00U 119.8 . . ?
C00B C00F H00V 118.2 . . ?
C00X C00F C00B 123.6(6) . . ?
C00X C00F H00V 118.2 . . ?
C009 C00G C00K 123.9(5) . . ?
C009 C00G C00P 116.5(6) . . ?
C00P C00G C00K 119.6(5) . . ?
H00A C00H H00B 108.4 . . ?
C00N C00H H00A 110.1 . . ?
C00N C00H H00B 110.1 . . ?
C00N C00H C00T 107.9(5) . . ?
C00T C00H H00A 110.1 . . ?
C00T C00H H00B 110.1 . . ?
N005 C00I H00C 113.9 . . ?
N005 C00I H00E 113.9 . . ?
N005 C00I C00K 88.7(4) . . ?
H00C C00I H00E 111.1 . . ?
C00K C00I H00C 113.9 . . ?
C00K C00I H00E 113.9 . . ?
C009 C00J H00J 121.0 . . ?
C00D C00J C009 118.1(7) . . ?
C00D C00J H00J 121.0 . . ?
O003 C00K C00G 109.6(5) . . ?
O003 C00K C00I 117.4(5) . . ?
O003 C00K C00N 113.5(4) . . ?
C00G C00K C00N 111.7(4) . . ?
C00I C00K C00G 116.8(4) . . ?
C00I C00K C00N 86.0(4) . . ?
N006 C00L H00X 109.4 . . ?
N006 C00L H00Y 109.4 . . ?
N006 C00L C00Q 111.3(6) . . ?
H00X C00L H00Y 108.0 . . ?
C00Q C00L H00X 109.4 . . ?
C00Q C00L H00Y 109.4 . . ?
N005 C00M H00F 107.9 . . ?
N005 C00M H00G 107.9 . . ?
N005 C00M C00S 117.7(5) . . ?
H00F C00M H00G 107.2 . . ?
C00S C00M H00F 107.9 . . ?
C00S C00M H00G 107.9 . . ?
N005 C00N C00H 116.8(6) . . ?
N005 C00N C00K 86.8(4) . . ?
N005 C00N H00N 112.4 . . ?
C00H C00N C00K 113.5(4) . . ?
C00H C00N H00N 112.4 . . ?
C00K C00N H00N 112.4 . . ?
C00E C00O H00Z 119.0 . . ?
C00X C00O C00E 122.0(6) . . ?
C00X C00O H00Z 119.0 . . ?
C00G C00P H00P 118.1 . . ?
C00W C00P C00G 123.8(7) . . ?
C00W C00P H00P 118.1 . . ?
C00L C00Q H00 108.7 . . ?
C00L C00Q H 108.7 . . ?
H00 C00Q H 107.6 . . ?
C00V C00Q C00L 114.1(6) . . ?
C00V C00Q H00 108.7 . . ?
C00V C00Q H 108.7 . . ?
C00C C00R H1 108.0 . . ?
C00V C00R C00C 113.3(5) . . ?
C00V C00R H1 108.0 . . ?
C00Y C00R C00C 109.6(5) . . ?
C00Y C00R H1 108.0 . . ?
C00Y C00R C00V 109.7(5) . . ?
C00M C00S H00S 111.0 . . ?
C00M C00S C00T 106.7(6) . . ?
C00T C00S H00S 111.0 . . ?
C00Z C00S C00M 111.6(6) . . ?
C00Z C00S H00S 111.0 . . ?
C00Z C00S C00T 105.5(6) . . ?
C00H C00T H00H 109.8 . . ?
C00H C00T H00I 109.8 . . ?
C00S C00T C00H 109.5(5) . . ?
C00S C00T H00H 109.8 . . ?
C00S C00T H00I 109.8 . . ?
H00H C00T H00I 108.2 . . ?
Cl01 C00U H5 109.6 . . ?
Cl01 C00U HA 109.6 . . ?
Cl02 C00U Cl01 110.3(8) . . ?
Cl02 C00U H5 109.6 . . ?
Cl02 C00U HA 109.6 . . ?
H5 C00U HA 108.1 . . ?
C00Q C00V C00R 109.7(5) . . ?
C00Q C00V H2 109.7 . . ?
C00Q C00V HB 109.7 . . ?
C00R C00V H2 109.7 . . ?
C00R C00V HB 109.7 . . ?
H2 C00V HB 108.2 . . ?
C00D C00W H00W 121.3 . . ?
C00P C00W C00D 117.3(6) . . ?
C00P C00W H00W 121.3 . . ?
C00F C00X C00O 116.6(7) . . ?
C00F C00X H3 121.7 . . ?
C00O C00X H3 121.7 . . ?
C00R C00Y H4 109.5 . . ?
C00R C00Y HC 109.5 . . ?
C00R C00Y HD 109.5 . . ?
H4 C00Y HC 109.5 . . ?
H4 C00Y HD 109.5 . . ?
HC C00Y HD 109.5 . . ?
C00S C00Z H00K 109.5 . . ?
C00S C00Z H00L 109.5 . . ?
C00S C00Z H00M 109.5 . . ?
H00K C00Z H00L 109.5 . . ?
H00K C00Z H00M 109.5 . . ?
H00L C00Z H00M 109.5 . . ?

loop_
_geom_torsion_atom_site_label_1
_geom_torsion_atom_site_label_2
_geom_torsion_atom_site_label_3
_geom_torsion_atom_site_label_4
_geom_torsion
_geom_torsion_site_symmetry_1
_geom_torsion_site_symmetry_2
_geom_torsion_site_symmetry_3
_geom_torsion_site_symmetry_4
_geom_torsion_publ_flag
O003 C00K C00N N005 -139.8(5) . . . . ?
O003 C00K C00N C00H -21.8(8) . . . . ?
O004 C007 C008 C00B -50.8(6) . . . . ?
O004 C007 C008 C00E 130.3(5) . . . . ?
O004 C007 C00A N006 135.7(5) . . . . ?
O004 C007 C00C N006 -137.0(5) . . . . ?
O004 C007 C00C C00R -20.0(7) . . . . ?
N005 C00I C00K O003 136.0(5) . . . . ?
N005 C00I C00K C00G -90.8(5) . . . . ?
N005 C00I C00K C00N 21.5(4) . . . . ?
N005 C00M C00S C00T 50.7(7) . . . . ?
N005 C00M C00S C00Z 165.5(6) . . . . ?
N006 C00C C00R C00V -39.1(7) . . . . ?
N006 C00C C00R C00Y -162.0(5) . . . . ?
N006 C00L C00Q C00V 46.1(8) . . . . ?
C007 C008 C00B C00F 177.4(5) . . . . ?
C007 C008 C00E C00O -178.2(5) . . . . ?
C007 C00C C00R C00V -140.0(5) . . . . ?
C007 C00C C00R C00Y 97.1(6) . . . . ?
C008 C007 C00A N006 -91.9(5) . . . . ?
C008 C007 C00C N006 95.7(5) . . . . ?
C008 C007 C00C C00R -147.4(5) . . . . ?
C008 C00B C00F C00X 2.9(10) . . . . ?
C008 C00E C00O C00X -1.4(10) . . . . ?
C009 C00G C00K O003 130.0(5) . . . . ?
C009 C00G C00K C00I -6.7(8) . . . . ?
C009 C00G C00K C00N -103.4(6) . . . . ?
C009 C00G C00P C00W 2.2(10) . . . . ?
C00A N006 C00C C007 23.0(4) . . . . ?
C00A N006 C00C C00R -96.2(5) . . . . ?
C00A N006 C00L C00Q 80.1(7) . . . . ?
C00A C007 C008 C00B 174.8(5) . . . . ?
C00A C007 C008 C00E -4.1(7) . . . . ?
C00A C007 C00C N006 -21.7(4) . . . . ?
C00A C007 C00C C00R 95.3(5) . . . . ?
C00B C008 C00E C00O 2.9(8) . . . . ?
C00B C00F C00X C00O -1.4(11) . . . . ?
C00C N006 C00A C007 -22.8(4) . . . . ?
C00C N006 C00L C00Q -28.7(8) . . . . ?
C00C C007 C008 C00B 78.0(6) . . . . ?
C00C C007 C008 C00E -100.9(6) . . . . ?
C00C C007 C00A N006 22.0(4) . . . . ?
C00C C00R C00V C00Q 56.5(7) . . . . ?
C00E C008 C00B C00F -3.6(8) . . . . ?
C00E C00O C00X C00F 0.6(10) . . . . ?
C00G C009 C00J C00D 1.2(10) . . . . ?
C00G C00K C00N N005 95.8(5) . . . . ?
C00G C00K C00N C00H -146.3(6) . . . . ?
C00G C00P C00W C00D -1.6(11) . . . . ?
C00I N005 C00M C00S 72.5(7) . . . . ?
C00I N005 C00N C00H -93.0(5) . . . . ?
C00I N005 C00N C00K 21.9(4) . . . . ?
C00I C00K C00N N005 -21.5(4) . . . . ?
C00I C00K C00N C00H 96.5(6) . . . . ?
C00J C009 C00G C00K -178.9(5) . . . . ?
C00J C009 C00G C00P -2.0(9) . . . . ?
C00J C00D C00W C00P 0.7(11) . . . . ?
C00K C00G C00P C00W 179.3(6) . . . . ?
C00L N006 C00A C007 -149.0(5) . . . . ?
C00L N006 C00C C007 145.6(5) . . . . ?
C00L N006 C00C C00R 26.5(7) . . . . ?
C00L C00Q C00V C00R -60.8(7) . . . . ?
C00M N005 C00I C00K -144.0(5) . . . . ?
C00M N005 C00N C00H 31.2(6) . . . . ?
C00M N005 C00N C00K 146.0(5) . . . . ?
C00M C00S C00T C00H -65.1(6) . . . . ?
C00N N005 C00I C00K -22.6(4) . . . . ?
C00N N005 C00M C00S -34.4(8) . . . . ?
C00N C00H C00T C00S 62.8(7) . . . . ?
C00P C00G C00K O003 -46.9(7) . . . . ?
C00P C00G C00K C00I 176.5(5) . . . . ?
C00P C00G C00K C00N 79.8(7) . . . . ?
C00T C00H C00N N005 -44.8(7) . . . . ?
C00T C00H C00N C00K -143.5(5) . . . . ?
C00W C00D C00J C009 -0.5(10) . . . . ?
C00Y C00R C00V C00Q 179.3(5) . . . . ?
C00Z C00S C00T C00H 176.1(5) . . . . ?

_shelx_res_file                  
;
TITL cc_b08b_a.res in Cc
    cc_b08b.res
    created by SHELXL-2018/3 at 15:42:38 on 05-Aug-2021
REM Old TITL cc_b08b_a.res in Cc
REM SHELXT solution in Cc: R1 0.241, Rweak 0.018, Alpha 0.003
REM <I/s> 0.413 for 190 systematic absences, Orientation as input
REM Flack x = 0.218 ( 0.032 ) from 1639 Parsons' quotients
REM Formula found by SHELXT: C26 N5 O3 Cl2
CELL 0.71073 17.888 8.8747 19.0386 90 111.635 90
ZERR 8 0.0017 0.0009 0.0019 0 0.001 0
LATT -7
SYMM +X,-Y,0.5+Z
SFAC C H Cl N O
UNIT 116 157.04 8 8 8

L.S. 10
PLAN  7
SIZE 0.06 0.19 0.24
TEMP -79.5
CONF
BOND
list 4
MORE -1
BOND $H
fmap 2
ACTA
REM <olex2.extras>
REM <HklSrc "%./Cc_b08b.hkl">
REM </olex2.extras>

WGHT    0.099600    0.931900
FVAR       0.40155   0.62711   0.59150
PART 2
CL01  3    0.054689    0.135763    0.343261    21.00000    0.07539    0.15689 =
         0.08443   -0.01218    0.02787   -0.00462
CL02  3   -0.040644    0.046434    0.190445    31.00000    0.07702    0.09669 =
         0.10181   -0.02035    0.05530   -0.02038

PART 0
O003  5   -0.168083    0.353744    0.241722    11.00000    0.02680    0.02083 =
         0.10001   -0.00053    0.02144    0.00105
AFIX 147
H003  2   -0.196989    0.277662    0.224528    11.00000   -1.50000
AFIX   0

O004  5   -0.337633   -0.143654    0.248146    11.00000    0.03339    0.02346 =
         0.07879   -0.00172    0.01900   -0.00719
AFIX 147
H004  2   -0.309155   -0.206677    0.279575    11.00000   -1.50000
AFIX   0

N005  4   -0.234025    0.620903    0.328133    11.00000    0.03761    0.02363 =
         0.06775    0.00224    0.01034   -0.00187
N006  4   -0.271860    0.118225    0.161649    11.00000    0.04072    0.02474 =
         0.05869   -0.00003    0.01457   -0.00374
C007  1   -0.289458   -0.020359    0.243987    11.00000    0.02882    0.02061 =
         0.06938   -0.00446    0.01775   -0.00507
C008  1   -0.238138    0.031758    0.321023    11.00000    0.03738    0.01695 =
         0.05931    0.00383    0.02251    0.00126
C009  1   -0.352900    0.550826    0.144117    11.00000    0.03614    0.03829 =
         0.05204   -0.00151    0.01517    0.00113
AFIX  43
H009  2   -0.378949    0.532886    0.178710    11.00000   -1.20000
AFIX   0

C00A  1   -0.247884   -0.038017    0.185298    11.00000    0.03789    0.02438 =
         0.06169   -0.00385    0.02233    0.00005
AFIX  23
H00O  2   -0.188983   -0.053297    0.208313    11.00000   -1.20000
H00Q  2   -0.273467   -0.113935    0.145575    11.00000   -1.20000
AFIX   0
C00B  1   -0.276471    0.059539    0.371529    11.00000    0.05888    0.02824 =
         0.07839   -0.00901    0.03735   -0.00471
AFIX  43
H00R  2   -0.333141    0.049340    0.356094    11.00000   -1.20000
AFIX   0
C00C  1   -0.337811    0.107960    0.191949    11.00000    0.02805    0.02776 =
         0.06948   -0.00697    0.01731   -0.00083
AFIX  13
H00T  2   -0.340087    0.199846    0.221499    11.00000   -1.20000
AFIX   0

C00D  1   -0.359699    0.619385    0.022630    11.00000    0.09916    0.03736 =
         0.06240    0.00911    0.03253    0.01568
AFIX  43
H00D  2   -0.390343    0.650484   -0.027526    11.00000   -1.20000
AFIX   0

C00E  1   -0.155818    0.056304    0.344809    11.00000    0.04102    0.02645 =
         0.05983   -0.00301    0.01743   -0.00572
AFIX  43
H00U  2   -0.129125    0.042471    0.310412    11.00000   -1.20000
AFIX   0
C00F  1   -0.229159    0.103357    0.446458    11.00000    0.11117    0.03485 =
         0.10122   -0.00849    0.07464   -0.00614
AFIX  43
H00V  2   -0.255351    0.117447    0.481243    11.00000   -1.20000
AFIX   0

C00G  1   -0.269905    0.529625    0.168028    11.00000    0.04175    0.02018 =
         0.07054    0.00778    0.02714    0.00737
C00H  1   -0.086103    0.563280    0.353016    11.00000    0.03126    0.03554 =
         0.09346    0.00137    0.00094   -0.00369
AFIX  23
H00A  2   -0.044542    0.585155    0.331603    11.00000   -1.20000
H00B  2   -0.085277    0.453859    0.363396    11.00000   -1.20000
AFIX   0
C00I  1   -0.257694    0.461604    0.304832    11.00000    0.03150    0.02468 =
         0.05765    0.00282    0.00287   -0.00296
AFIX  23
H00C  2   -0.316548    0.445673    0.281864    11.00000   -1.20000
H00E  2   -0.232058    0.386779    0.345115    11.00000   -1.20000
AFIX   0
C00J  1   -0.398128    0.597052    0.071738    11.00000    0.06297    0.03986 =
         0.06305    0.00427    0.00982    0.01293
AFIX  43
H00J  2   -0.454421    0.612893    0.056504    11.00000   -1.20000
AFIX   0
C00K  1   -0.217164    0.475893    0.247390    11.00000    0.02557    0.01897 =
         0.07501    0.00421    0.01620   -0.00058

C00L  1   -0.288671    0.156543    0.081311    11.00000    0.07295    0.04114 =
         0.05876    0.00307    0.01135   -0.00817
AFIX  23
H00X  2   -0.248291    0.107205    0.064781    11.00000   -1.20000
H00Y  2   -0.283893    0.266844    0.076413    11.00000   -1.20000
AFIX   0

C00M  1   -0.211112    0.664404    0.406117    11.00000    0.04574    0.02789 =
         0.06218   -0.00277    0.00555    0.00352
AFIX  23
H00F  2   -0.252996    0.627374    0.424287    11.00000   -1.20000
H00G  2   -0.211763    0.775835    0.408249    11.00000   -1.20000
AFIX   0
C00N  1   -0.168098    0.609506    0.297839    11.00000    0.03566    0.01773 =
         0.09132    0.00710    0.00907   -0.00151
AFIX  13
H00N  2   -0.165609    0.699613    0.267238    11.00000   -1.20000
AFIX   0

C00O  1   -0.111697    0.101547    0.419559    11.00000    0.04755    0.04629 =
         0.06102   -0.00169    0.01112   -0.00685
AFIX  43
H00Z  2   -0.055249    0.115457    0.434952    11.00000   -1.20000
AFIX   0

C00P  1   -0.235072    0.553198    0.113570    11.00000    0.06591    0.02861 =
         0.10568    0.00920    0.05483    0.00523
AFIX  43
H00P  2   -0.178985    0.535938    0.127936    11.00000   -1.20000
AFIX   0

C00Q  1   -0.375433    0.104098    0.028851    11.00000    0.07923    0.03197 =
         0.07741   -0.00326    0.00145   -0.00239
AFIX  23
H00   2   -0.388853    0.150786   -0.021547    11.00000   -1.20000
H     2   -0.374979   -0.006516    0.022284    11.00000   -1.20000
AFIX   0
C00R  1   -0.421511    0.067730    0.132696    11.00000    0.03150    0.02834 =
         0.10166   -0.00710    0.01591    0.00187
AFIX  13
H1    2   -0.423429   -0.043763    0.124614    11.00000   -1.20000
AFIX   0

C00S  1   -0.131039    0.611472    0.460598    11.00000    0.05860    0.03961 =
         0.06400   -0.01190   -0.01400    0.00964
AFIX  13
H00S  2   -0.131525    0.500349    0.469121    11.00000   -1.20000
AFIX   0
C00T  1   -0.069054    0.652775    0.426083    11.00000    0.04976    0.02676 =
         0.10763    0.00359   -0.01244   -0.00202
AFIX  23
H00H  2   -0.014303    0.629340    0.462314    11.00000   -1.20000
H00I  2   -0.071835    0.762106    0.415082    11.00000   -1.20000
AFIX   0

PART 2
C00U  1   -0.001061    0.198661    0.249013    11.00000    0.04497    0.06780 =
         0.11332   -0.00336    0.04026   -0.00677
AFIX  23
H5    2   -0.045175    0.265889    0.249142    21.00000   -1.20000
HA    2    0.034680    0.256718    0.229815    21.00000   -1.20000
AFIX   0

PART 0
C00V  1   -0.438767    0.142644    0.057846    11.00000    0.04791    0.03207 =
         0.09891   -0.00337   -0.01087    0.00553
AFIX  23
H2    2   -0.491652    0.108823    0.021581    11.00000   -1.20000
HB    2   -0.440855    0.253257    0.063606    11.00000   -1.20000
AFIX   0

C00W  1   -0.275914    0.597965    0.043598    11.00000    0.11115    0.03304 =
         0.06906    0.01195    0.04870    0.00846
AFIX  43
H00W  2   -0.250020    0.615054    0.008808    11.00000   -1.20000
AFIX   0

C00X  1   -0.148092    0.126389    0.471333    11.00000    0.09563    0.04242 =
         0.05636   -0.00521    0.01999   -0.00049
AFIX  43
H3    2   -0.118165    0.157853    0.521594    11.00000   -1.20000
AFIX   0
C00Y  1   -0.484014    0.107543    0.162088    11.00000    0.02947    0.05208 =
         0.11318   -0.00853    0.02046    0.00680
AFIX 137
H4    2   -0.473129    0.056640    0.210538    11.00000   -1.50000
HC    2   -0.536620    0.075750    0.126002    11.00000   -1.50000
HD    2   -0.484073    0.216852    0.169371    11.00000   -1.50000
AFIX   0

C00Z  1   -0.107405    0.691247    0.530117    11.00000    0.08676    0.08139 =
         0.09127    0.01089    0.01152    0.02149
AFIX 137
H00K  2   -0.109350    0.799821    0.520209    11.00000   -1.50000
H00L  2   -0.052481    0.662319    0.562056    11.00000   -1.50000
H00M  2   -0.144084    0.666621    0.556033    11.00000   -1.50000
AFIX   0

PART 1
CL    3   -0.057935    0.112929    0.158355   -31.00000    0.06429    0.14321 =
         0.14757   -0.00064    0.05274   -0.00423

CL1   3    0.038619    0.060272    0.311326   -21.00000    0.07009    0.15829 =
         0.12964    0.04111    0.05909    0.05242
HKLF 4




REM  cc_b08b_a.res in Cc
REM wR2 = 0.1801, GooF = S = 1.015, Restrained GooF = 1.015 for all data
REM R1 = 0.0551 for 3980 Fo > 4sig(Fo) and 0.0910 for all 6122 data
REM 340 parameters refined using 2 restraints

END

WGHT      0.0996      0.9319

REM Highest difference peak  0.520,  deepest hole -0.248,  1-sigma level  0.045
Q1    1  -0.1727  0.6138  0.4590  11.00000  0.05    0.20
Q2    1  -0.3091  0.5425  0.1616  11.00000  0.05    0.17
Q3    1  -0.2079  0.0623  0.3170  11.00000  0.05    0.17
Q4    1  -0.2458  0.4478  0.2666  11.00000  0.05    0.17
Q5    1  -0.3290  0.1199  0.0321  11.00000  0.05    0.17
Q6    1  -0.2585 -0.0499  0.2246  11.00000  0.05    0.16
Q7    1  -0.1196  0.5988  0.3602  11.00000  0.05    0.16
;
_shelx_res_checksum              33193
_shelx_hkl_file                  
;
  -4   0   0 1231.59   43.84
  -4   0   0 1235.16   43.79
   4   0   0 1237.15   43.90
  -6   0   0  850.98   29.42
   6   0   0  827.88   29.48
   6   0   0  794.55   29.97
   6   0   0  817.00   30.17
  -6   0   0  822.90   29.98
   8   0   0   81.58    4.87
   8   0   0   88.79    4.33
   8   0   0   82.58    5.17
  -8   0   0   79.05    4.82
  -8   0   0   81.72    4.18
 -10   0   0 1068.38   37.62
  10   0   0 1023.43   38.72
  10   0   0 1086.04   37.90
 -10   0   0 1013.85   38.61
  10   0   0 1026.90   39.06
  12   0   0   47.06    4.64
 -12   0   0   50.00    4.92
  12   0   0   53.36    4.14
  12   0   0   50.49    5.19
 -14   0   0   10.17    3.09
  14   0   0   17.48    4.24
  14   0   0    8.78    3.11
 -16   0   0   61.15    6.33
  16   0   0   70.33    8.04
  16   0   0   60.85    6.49
 -18   0   0   96.05    8.62
  18   0   0   86.74    8.39
  18   0   0   91.43    9.70
  20   0   0   10.70    6.08
 -20   0   0    3.68    3.74
  20   0   0    2.51    4.18
   3  -1   0 1174.91   41.35
   3  -1   0 1166.54   41.67
   3  -1   0 1160.12   41.51
  -3  -1   0 1143.29   41.35
  -3  -1   0 1194.24   41.39
  -3   1   0 1171.80   41.36
   3   1   0 1182.87   41.52
  -3   1   0 1162.06   41.37
   3   1   0 1161.81   41.38
  -5  -1   0  330.12   12.73
   5  -1   0  330.90   13.08
  -5  -1   0  337.13   12.61
   5  -1   0  337.38   12.61
  -5   1   0  308.66   12.65
  -5   1   0  329.44   12.72
   5   1   0  333.16   12.89
   5   1   0  332.17   12.77
   7  -1   0  229.76    9.81
   7  -1   0  226.13    9.06
  -7  -1   0  210.24    9.22
  -7  -1   0  207.13    8.93
  -7   1   0  218.92    9.27
   7   1   0  232.65    8.40
  -7   1   0  210.00    9.32
   7   1   0  211.72    9.28
   7   1   0  213.24    9.49
  -9  -1   0  120.57    5.96
  -9  -1   0  109.09    6.21
   9  -1   0  126.27    6.92
   9  -1   0  121.47    6.08
   9   1   0  116.80    6.68
  -9   1   0  121.08    6.40
   9   1   0  124.58    5.33
   9   1   0  118.35    6.42
  -9   1   0  111.79    6.28
 -11  -1   0  203.49    8.78
  11  -1   0  188.08   10.01
  11  -1   0  183.72    9.37
 -11  -1   0  185.79    9.36
  11  -1   0  187.46    8.87
  11   1   0  205.59    8.26
 -11   1   0  183.95    9.31
  11   1   0  194.11    9.94
  11   1   0  200.42    9.53
 -13  -1   0  137.18    8.25
 -13  -1   0  142.25    7.82
  13  -1   0  156.61    8.03
  13  -1   0  150.80    8.50
  13  -1   0  149.85    9.24
  13   1   0  148.15    9.22
 -13   1   0  154.41    8.44
  15  -1   0    0.54    2.76
  15  -1   0   -0.01    3.66
 -15  -1   0   -0.90    2.56
  15  -1   0    3.40    3.18
  15   1   0    1.42    3.49
 -15   1   0    4.78    2.94
  15   1   0   -0.14    2.55
  17  -1   0    7.00    4.94
  17  -1   0    3.44    3.48
 -17  -1   0    4.48    3.40
  17   1   0    6.20    4.84
  17   1   0    6.42    3.59
 -17   1   0    5.62    3.23
 -19  -1   0   -1.53    3.34
  19  -1   0    3.25    4.10
  19  -1   0    3.09    5.48
  19   1   0    2.06    3.86
  19   1   0    1.13    5.37
 -19   1   0    2.21    3.81
  21  -1   0  108.22   11.94
  21  -1   0  108.82   10.62
 -21  -1   0   95.37    9.28
 -21   1   0  109.37   10.17
  21   1   0   90.36    9.87
  21   1   0   85.17   11.02
   0  -2   0 7522.83  262.11
   0  -2   0 7501.52  261.91
   0  -2   0 7963.88  261.88
   0   2   0 7270.51  261.75
   0   2   0 7336.51  261.73
   2  -2   0 1560.42   56.92
   2  -2   0 1591.42   56.39
  -2  -2   0 1603.68   56.51
  -2  -2   0 1579.76   56.30
   2  -2   0 1585.45   56.59
  -2   2   0 1637.53   56.37
  -2   2   0 1628.78   56.28
   2   2   0 1603.66   56.31
   2   2   0 1578.61   56.80
  -4  -2   0  680.13   24.34
   4  -2   0  666.64   24.96
   4  -2   0  664.69   24.38
   4  -2   0  651.21   24.64
  -4  -2   0  673.95   24.47
  -4   2   0  681.17   24.35
   4   2   0  657.86   24.31
  -4   2   0  667.51   24.28
   4   2   0  642.52   24.68
   6  -2   0  635.11   23.38
   6  -2   0  615.05   23.99
  -6  -2   0  627.16   23.37
  -6  -2   0  645.28   23.44
  -6   2   0  625.53   23.37
   6   2   0  623.65   23.76
  -6   2   0  618.47   23.36
   6   2   0  622.58   23.38
  -8  -2   0  276.09   11.63
   8  -2   0  265.00   11.43
   8  -2   0  288.48   12.57
  -8  -2   0  281.57   11.61
  -8   2   0  274.20   11.60
   8   2   0  280.31   12.14
  -8   2   0  270.03   11.62
   8   2   0  268.57   11.69
  10  -2   0  206.85    9.59
 -10  -2   0  195.43    9.51
 -10  -2   0  201.96    9.39
  10  -2   0  203.56   10.41
  10   2   0  199.50    9.72
 -10   2   0  195.76    9.74
 -10   2   0  217.47    9.73
  10   2   0  222.49   10.33
 -12  -2   0    0.50    2.08
  12  -2   0    3.82    3.00
 -12  -2   0    1.26    2.06
  12  -2   0    0.89    2.10
 -12   2   0    0.73    2.22
 -12   2   0    3.25    2.23
  12   2   0    0.25    2.17
  12   2   0    0.25    2.65
 -14  -2   0    2.02    2.73
  14  -2   0    5.43    2.97
 -14  -2   0    4.93    2.62
  14  -2   0    1.34    2.85
  14  -2   0   -0.54    3.37
  14   2   0    4.03    2.75
  14   2   0    1.63    3.43
 -14   2   0    0.25    2.35
  16  -2   0   35.21    5.05
  16  -2   0   30.98    5.02
 -16  -2   0   28.58    4.69
  16  -2   0   41.01    6.73
  16   2   0   47.83    6.67
  16   2   0   31.78    5.19
 -16   2   0   31.44    5.06
  18  -2   0   12.90    5.85
 -18  -2   0   12.56    4.10
  18  -2   0   13.18    4.60
  18   2   0    7.49    4.21
 -18   2   0    9.46    4.12
  18   2   0   14.81    5.89
  20  -2   0   -1.46    4.24
  20  -2   0   12.55    6.52
 -20  -2   0   -4.76    3.15
 -20   2   0   -1.02    3.90
  20   2   0    7.89    6.40
  20   2   0    2.52    3.47
   1  -3   0  398.19   15.56
  -1  -3   0  407.94   15.00
   1  -3   0  412.36   15.25
   1  -3   0  405.13   15.30
  -1  -3   0  408.97   15.52
   1  -3   0  411.97   16.31
   1   3   0  402.00   15.29
  -1   3   0  400.01   15.35
  -1   3   0  407.97   15.21
   1   3   0  408.04   16.20
   1   3   0  408.03   15.25
  -1   3   0  403.31   16.27
   3  -3   0  670.66   25.52
  -3  -3   0  713.78   25.48
   3  -3   0  710.48   24.95
  -3  -3   0  683.54   25.72
   3  -3   0  686.23   26.39
   3   3   0  684.08   25.40
  -3   3   0  691.86   25.46
  -3   3   0  714.68   25.39
   3   3   0  679.37   26.24
  -5  -3   0  331.25   13.11
  -5  -3   0  333.89   13.43
   5  -3   0  331.15   14.10
   5  -3   0  319.35   13.21
  -5   3   0  335.95   13.15
  -5   3   0  329.50   13.08
   5   3   0  326.29   13.11
   5   3   0  328.40   13.83
   7  -3   0   43.27    3.84
  -7  -3   0   51.46    3.80
  -7  -3   0   43.40    4.03
   7  -3   0   52.06    5.31
   7   3   0   49.45    4.67
   7   3   0   52.68    4.21
  -7   3   0   45.67    3.92
  -7   3   0   57.92    4.44
  -9  -3   0   76.15    5.02
  -9  -3   0   64.19    4.73
   9  -3   0   69.44    4.91
   9  -3   0   64.97    5.99
   9   3   0   54.29    4.75
  -9   3   0   67.69    5.37
   9   3   0   70.49    5.94
  -9   3   0   66.49    4.79
  11  -3   0   20.69    4.13
 -11  -3   0   12.40    2.92
 -11  -3   0   15.48    2.96
  11  -3   0    7.02    2.71
 -11   3   0   11.01    2.83
  11   3   0    8.18    2.67
  11   3   0   20.99    4.11
 -11   3   0   12.85    2.91
  13  -3   0   37.50    4.71
  13  -3   0   30.45    5.24
 -13  -3   0   32.66    4.33
 -13  -3   0   27.74    4.00
  13   3   0   35.19    5.52
 -13   3   0   38.24    4.67
  13   3   0   30.19    4.51
 -13   3   0   34.35    4.49
 -15  -3   0  146.66    8.95
  15  -3   0  167.05   11.32
 -15  -3   0  144.06    8.95
  15  -3   0  148.39    8.98
 -15   3   0  140.45    8.98
 -15   3   0  146.54    9.15
  15   3   0  126.09    8.99
  15   3   0  155.57   10.93
  17  -3   0   12.27    5.60
  17  -3   0   18.40    4.36
  17  -3   0    9.10    3.93
 -17  -3   0   15.72    4.12
  17   3   0   21.22    6.04
  17   3   0   12.12    4.11
 -17   3   0   16.83    4.48
 -19  -3   0    9.00    4.45
  19  -3   0    3.55    4.15
  19  -3   0    5.53    6.19
 -19   3   0   12.45    4.93
  19   3   0    4.89    3.77
  19   3   0   14.81    6.43
   0  -4   0 4665.87  165.11
   0  -4   0 4701.33  163.73
   0  -4   0 4577.80  164.02
   0   4   0 4637.01  163.96
   0   4   0 4743.23  163.90
   0   4   0 4745.15  165.30
   2  -4   0   13.14    2.07
   2  -4   0    9.51    2.07
  -2  -4   0   13.70    2.35
  -2  -4   0   13.98    1.78
   2  -4   0   12.30    3.20
  -2   4   0   13.47    3.47
  -2   4   0   11.81    2.19
   2   4   0   14.13    2.14
   2   4   0   13.87    2.15
   2   4   0   17.77    3.29
  -2   4   0   14.32    2.06
  -4  -4   0  500.47   19.96
  -4  -4   0  490.15   19.50
   4  -4   0  531.50   18.91
   4  -4   0  505.00   19.71
   4  -4   0  505.92   20.85
  -4  -4   0  491.05   18.47
  -4   4   0  523.17   19.58
   4   4   0  534.02   19.62
  -4   4   0  521.14   21.12
  -4   4   0  504.81   19.62
   4   4   0  512.36   20.79
  -6  -4   0   66.47    4.76
   6  -4   0   57.55    4.63
   6  -4   0   58.51    5.74
  -6  -4   0   60.12    4.36
   6  -4   0   65.25    3.44
   6   4   0   57.42    4.48
   6   4   0   64.22    5.86
  -6   4   0   62.92    4.34
  -6   4   0   63.66    4.39
  -8  -4   0   39.98    4.34
   8  -4   0   46.43    4.44
   8  -4   0   32.36    4.83
  -8  -4   0   46.00    4.30
   8   4   0   32.17    4.64
  -8   4   0   34.19    3.75
   8   4   0   34.36    3.84
  -8   4   0   55.14    4.59
 -10  -4   0  121.95    7.20
  10  -4   0  134.99    8.85
 -10  -4   0  119.96    7.46
  10  -4   0  130.54    7.60
 -10   4   0  124.07    7.35
  10   4   0  121.69    8.45
  10   4   0  122.52    7.44
 -10   4   0  118.67    7.19
  12  -4   0   22.63    5.28
 -12  -4   0   21.30    3.87
  12  -4   0   18.71    3.95
 -12  -4   0   19.18    3.63
 -12   4   0   28.72    4.11
  12   4   0   17.79    4.59
 -12   4   0   19.01    3.69
  12   4   0   17.77    3.76
  14  -4   0   -2.00    2.84
 -14  -4   0    3.74    2.90
  14  -4   0    2.62    4.51
 -14  -4   0    2.37    3.03
  14   4   0   -1.92    3.97
 -14   4   0    1.20    2.58
  14   4   0    6.92    3.21
 -14   4   0    2.08    3.02
 -16  -4   0    3.60    3.69
  16  -4   0   -3.44    4.54
 -16  -4   0   -0.96    2.72
  16  -4   0    0.67    3.32
  16   4   0   -0.22    4.38
 -16   4   0   -3.95    2.93
  16   4   0    3.63    3.39
 -16   4   0    2.69    3.42
  18  -4   0   65.31    7.61
  18  -4   0   91.12    8.54
  18  -4   0   69.41    9.93
 -18  -4   0   70.76    7.66
  18   4   0   79.02    8.27
 -18   4   0   69.81    7.74
  18   4   0   64.87    9.38
  -1  -5   0   31.68    4.62
  -1  -5   0   26.32    3.10
  -1  -5   0   20.21    2.60
   1  -5   0   24.06    2.94
   1  -5   0   40.54    4.97
   1  -5   0   18.14    2.60
  -1   5   0   22.40    4.18
  -1   5   0   22.76    2.66
   1   5   0   27.58    3.04
   1   5   0   20.73    2.65
  -1   5   0   18.94    2.72
   1   5   0   20.56    4.09
   3  -5   0   17.89    2.52
   3  -5   0   21.85    3.09
  -3  -5   0   16.22    2.14
   3  -5   0   18.90    4.21
  -3  -5   0   15.58    2.84
  -3   5   0   20.30    2.65
   3   5   0   19.35    2.74
  -3   5   0   23.16    4.37
  -3   5   0   20.25    2.91
   3   5   0   19.60    2.83
   3   5   0   25.54    4.50
   5  -5   0   86.87    4.70
  -5  -5   0   85.76    5.84
  -5  -5   0   91.65    5.07
   5  -5   0   87.91    7.39
   5  -5   0   90.68    5.64
  -5   5   0   87.06    5.52
   5   5   0   86.22    5.41
   5   5   0   87.86    5.59
  -5   5   0   98.23    9.46
  -5   5   0   84.29    5.24
   5   5   0   98.09    7.30
  -7  -5   0   99.77    6.15
   7  -5   0   93.73    6.25
   7  -5   0  116.02    8.20
  -7  -5   0   97.54    6.49
   7   5   0  109.63    7.87
  -7   5   0  101.27    6.33
  -7   5   0   94.53    5.94
   7   5   0   97.88    6.17
   9  -5   0    0.54    3.65
   9  -5   0    1.78    2.47
  -9  -5   0    0.64    2.33
  -9  -5   0    0.00    2.07
   9   5   0   -1.11    3.20
  -9   5   0    2.18    2.26
  -9   5   0    2.48    2.10
   9   5   0   -1.96    2.19
  11  -5   0    2.80    2.85
 -11  -5   0    0.76    2.30
 -11  -5   0    3.85    3.21
  11  -5   0    1.52    3.98
  11   5   0    6.86    4.36
 -11   5   0    0.80    2.60
 -11   5   0   -0.58    2.55
  11   5   0    0.34    2.36
  13  -5   0   89.42    7.67
  13  -5   0  113.24   10.59
 -13  -5   0   83.74    7.83
 -13  -5   0   80.13    7.16
  13   5   0   88.13    9.01
  13   5   0   74.32    6.99
 -13   5   0   83.93    7.39
 -13   5   0   89.82    7.53
 -15  -5   0   27.87    4.87
  15  -5   0   24.37    4.83
 -15  -5   0   43.40    6.09
  15  -5   0   34.23    7.39
  15   5   0   21.86    6.55
  15   5   0   20.75    4.93
 -15   5   0   32.42    5.24
 -15   5   0   36.81    5.49
 -17  -5   0   11.93    4.33
  17  -5   0   15.26    7.10
 -17  -5   0   24.43    5.39
  17  -5   0   24.59    5.44
 -17   5   0   23.01    5.28
  17   5   0   14.24    4.60
  17   5   0   16.80    7.07
 -17   5   0   18.13    5.00
 -19  -5   0   34.74    6.23
  19  -5   0   37.19    6.33
  19  -5   0   45.61    6.92
  19  -5   0   40.48    8.99
 -19   5   0   33.55    6.47
  19   5   0   32.20    8.55
  19   5   0   35.01    6.42
   0  -6   0   52.49    4.27
   0  -6   0   43.54    5.78
   0  -6   0   44.72    4.41
   0   6   0   40.84    4.13
   0   6   0   59.01    6.82
   0   6   0   38.09    3.90
  -2  -6   0   39.88    4.35
   2  -6   0   43.01    6.00
  -2  -6   0   48.99    3.85
   2  -6   0   41.42    4.13
   2  -6   0   43.51    4.22
  -2   6   0   42.64    3.99
  -2   6   0   47.17    6.08
   2   6   0   51.00    4.53
  -2   6   0   44.44    4.27
   2   6   0   43.61    4.15
   2   6   0   40.69    5.88
   4  -6   0   36.66    3.61
  -4  -6   0   28.21    3.95
   4  -6   0   41.90    4.31
   4  -6   0   29.25    5.02
   4   6   0   34.86    3.85
   4   6   0   39.18    4.06
   4   6   0   33.86    5.55
  -4   6   0   35.93    4.12
  -4   6   0   30.91    3.66
   6  -6   0   26.04    5.34
  -6  -6   0   18.92    3.64
   6  -6   0   17.21    3.57
  -6   6   0   24.27    3.47
   6   6   0   19.89    5.15
   6   6   0   25.92    3.69
  -6   6   0   22.94    3.54
   6   6   0   22.31    3.58
   8  -6   0   48.98    6.84
  -8  -6   0   34.14    4.34
   8  -6   0   40.23    5.06
  -8  -6   0   31.54    4.69
  -8   6   0   45.31    4.87
   8   6   0   35.12    4.46
  -8   6   0   33.25    4.22
   8   6   0   38.71    6.33
  10  -6   0    6.11    3.21
  10  -6   0    0.72    4.93
 -10  -6   0    4.62    2.99
 -10  -6   0    4.46    2.61
  10   6   0   -0.13    2.62
 -10   6   0    3.02    2.97
  10   6   0    4.94    4.58
 -10   6   0    1.73    2.91
 -12  -6   0    3.21    3.49
  12  -6   0    0.61    4.81
  12  -6   0    7.67    3.43
 -12  -6   0    4.10    2.87
 -12   6   0    8.17    3.18
  12   6   0    3.51    4.86
 -12   6   0    6.75    3.43
  12   6   0    5.12    3.39
 -14  -6   0    8.22    3.99
  14  -6   0    6.87    6.04
 -14  -6   0    8.81    3.61
  14  -6   0    6.56    3.97
 -14   6   0    6.11    3.80
  14   6   0   -4.56    4.71
  14   6   0   14.01    4.26
 -14   6   0    1.82    3.20
  16  -6   0   -1.09    6.23
 -16  -6   0   -1.61    3.94
  16  -6   0    1.44    3.60
 -16  -6   0    0.77    3.50
  16   6   0   -4.96    5.74
  16   6   0    2.02    3.97
 -16   6   0    3.37    4.01
 -16   6   0    2.02    4.10
  18  -6   0    9.26    7.52
  18  -6   0   -6.37    4.10
 -18  -6   0    5.16    3.87
 -18  -6   0    4.40    5.29
 -18   6   0    2.38    4.55
  18   6   0    4.48    7.18
 -18   6   0    6.15    4.47
  18   6   0    4.88    4.57
  -1  -7   0   64.13    5.09
   1  -7   0   65.60    5.60
   1  -7   0   67.07    5.45
  -1  -7   0   57.08    5.65
   1   7   0   59.34    5.35
   1   7   0   66.84    5.65
  -1   7   0   63.00    5.37
  -1   7   0   75.63    9.77
  -1   7   0   65.19    5.50
   1   7   0   60.80    7.99
  -3  -7   0   96.42    7.05
   3  -7   0   94.44    6.26
   3  -7   0   95.52    6.83
   3   7   0   97.87    6.84
   3   7   0  107.98   10.01
   3   7   0   94.59    6.42
  -3   7   0   95.87    6.33
  -3   7   0  109.69    6.82
  -5  -7   0   86.38    7.67
   5  -7   0  106.13    9.76
   5  -7   0   98.80    7.25
   5   7   0  111.09    7.18
   5   7   0  105.19    7.12
  -5   7   0  108.52    7.05
   5   7   0  104.91    9.81
  -7  -7   0    2.75    2.93
   7  -7   0    1.03    2.80
   7  -7   0   -2.76    4.63
  -7   7   0    6.29    2.74
  -7   7   0    2.26    2.69
   7   7   0    0.25    2.74
   7   7   0   -1.63    3.95
   7   7   0   -1.68    2.65
   9  -7   0   18.06    6.12
  -9  -7   0   23.48    4.67
   9  -7   0   21.12    4.37
   9   7   0   16.63    3.94
  -9   7   0   19.41    3.85
   9   7   0   10.63    5.74
   9   7   0   21.84    4.29
  -9   7   0   16.66    3.89
 -11  -7   0    5.32    3.90
  11  -7   0   16.29    6.23
 -11  -7   0    6.73    3.20
  11  -7   0    9.36    3.57
 -11   7   0    2.01    3.14
  11   7   0    2.17    4.96
 -11   7   0    8.55    3.84
  11   7   0    6.26    3.53
 -13  -7   0    6.98    4.45
  13  -7   0    1.73    3.46
  13  -7   0    2.36    6.33
 -13  -7   0    1.53    3.13
 -13   7   0    6.47    3.97
 -13   7   0   -1.04    3.70
  13   7   0    1.46    3.95
  13   7   0   -6.85    5.05
 -15  -7   0    5.88    3.96
  15  -7   0   -1.39    3.94
  15  -7   0    4.35    7.11
 -15  -7   0    4.16    4.52
 -15   7   0    2.48    4.27
 -15   7   0    5.48    4.74
  15   7   0    3.04    4.02
  15   7   0    9.44    7.12
   0  -8   0   66.26    6.26
   0  -8   0   74.69    6.20
   0   8   0   77.25    6.31
   0   8   0   65.59    6.14
  -2  -8   0   34.97    4.83
   2  -8   0   39.31    4.77
   2  -8   0   48.97    5.24
   2   8   0   37.29    4.86
  -2   8   0   39.03    4.93
   2   8   0   31.68    4.46
  -2   8   0   35.97    4.53
   2   8   0   33.28    8.03
  -4  -8   0    0.15    3.01
   4  -8   0    2.49    3.12
  -4   8   0    4.37    2.89
   4   8   0    1.07    3.25
  -4   8   0    7.12    3.26
   4   8   0    3.73    3.00
   4   8   0    3.78    5.61
   6  -8   0   26.26    4.86
  -6  -8   0   24.80    5.02
   6   8   0   26.72    4.60
   6   8   0   30.07    4.58
   6   8   0   21.23    5.92
  -6   8   0   24.45    4.24
  -6   8   0   26.60    4.61
   8  -8   0   -5.67    2.79
  -8  -8   0    5.17    3.62
   8   8   0   -0.56    5.71
  -8   8   0    4.50    3.49
   8   8   0    4.08    3.54
  -8   8   0    4.30    3.49
   8   8   0   -0.39    3.45
 -10  -8   0   13.69    4.79
  10  -8   0    8.91    4.49
  10   8   0    6.15    3.92
  10   8   0    9.88    6.83
 -10   8   0   16.16    4.86
  10   8   0    1.69    4.11
 -10   8   0    8.93    3.83
  12  -8   0    4.57    4.09
 -12  -8   0    2.86    4.53
 -12   8   0   10.67    4.59
  12   8   0    5.74    4.25
  12   8   0    9.89    4.71
  12   8   0   -1.59    5.94
 -14  -8   0    0.42    4.85
  14  -8   0    6.43    3.78
  14   8   0    0.71    4.39
  14   8   0   -1.54    7.09
 -14   8   0    3.01    4.32
  14   8   0    3.82    4.92
   1  -9   0    4.35    3.03
   1  -9   0   -1.28    2.96
  -1  -9   0    1.91    3.12
   1   9   0    3.51    3.84
  -1   9   0   -0.97    3.04
   1   9   0    1.08    3.44
   3  -9   0   -0.19    3.43
  -3  -9   0   -1.61    2.85
   3   9   0    7.95    4.04
  -3   9   0    1.12    3.69
   3   9   0    3.27    3.91
  -5  -9   0    6.21    3.62
   5  -9   0   10.18    4.31
   5   9   0   13.93    4.43
   5   9   0   11.42    4.46
  -5   9   0   10.81    4.24
  -7  -9   0   64.54    7.67
   7  -9   0   67.82    7.63
  -7   9   0   69.17    6.96
   7   9   0   64.72    7.14
   7   9   0   83.32   12.07
   7   9   0   61.03    6.92
  -9  -9   0   17.99    4.60
   9  -9   0    4.26    4.81
  -9   9   0    6.90    4.11
   9   9   0   11.04    4.86
   9   9   0    5.40    4.21
   9   9   0   14.21    7.65
 -11  -9   0   13.57    5.29
  11  -9   0   10.86    5.22
  11   9   0    8.32    8.11
  11   9   0   12.62    5.41
  11   9   0    5.56    5.01
 -11   9   0   17.18    4.82
  13   9   0    8.14    8.52
   0 -10   0   25.15    5.39
   0  10   0   38.05    6.12
   2 -10   0   15.62    5.29
  -2 -10   0   16.13    4.60
  -2  10   0   11.75    4.90
   2  10   0   17.28    5.36
  -4 -10   0    9.84    4.47
   4 -10   0    2.99    4.10
  -4  10   0    9.07    4.81
   4  10   0    9.69    4.94
  -6 -10   0    9.24    4.43
   6 -10   0   -0.23    3.79
   6  10   0    0.52    4.95
  -6  10   0    6.07    4.64
  -8 -10   0    9.08    4.84
   8 -10   0   11.84    5.07
   8  10   0   11.73    6.70
  -8  10   0   14.40    5.34
  10 -10   0   32.15    6.93
 -10 -10   0   43.67    7.03
 -10  10   0   36.82    6.70
  10  10   0   32.18    7.56
  -1 -11   0    0.96    4.62
  -3 -11   0    3.10    4.39
   5 -11   0   -3.71    4.45
  -5 -11   0   -2.47    3.72
  20   0  -1    5.43    3.93
 -20   0   1   -6.63    3.04
  20   0  -1    2.94    5.83
  18   0  -1    3.26    4.55
 -18   0   1   -0.80    3.27
  18   0  -1   -0.14    3.33
  16   0  -1    2.48    3.04
 -16   0   1    2.63    3.07
  16   0  -1   -1.51    3.63
  14   0  -1    2.11    3.06
 -14   0   1    4.08    2.63
  14   0  -1   -1.59    2.22
  12   0  -1    1.93    2.15
 -12   0   1   -2.35    1.75
  12   0  -1    1.81    2.42
 -12   0   1    2.44    1.89
  12   0  -1    0.22    1.69
  10   0  -1    1.91    1.78
 -10   0   1    0.02    1.54
 -10   0   1   -1.02    1.29
  10   0  -1   -0.31    1.62
  10   0  -1    1.69    1.28
  -8   0   1    0.52    1.14
   8   0  -1   -0.99    1.12
   8   0  -1    0.87    1.12
   8   0  -1   -0.13    1.52
   8   0  -1    0.83    1.42
  -8   0   1    0.63    1.45
  -8   0   1    0.13    1.25
   6   0  -1    0.58    1.20
   6   0  -1   -1.12    0.90
   6   0  -1   -1.02    0.84
  -6   0   1    0.58    1.14
  -6   0   1    1.38    1.21
  -6   0   1    0.40    1.10
   4   0  -1    0.19    0.89
  -4   0   1    0.91    1.07
  -4   0   1    0.05    1.04
   4   0   1   -0.13    1.32
  -4   0  -1    2.60    1.11
   4   0   1    0.88    1.10
   4   0   1   -0.56    0.93
  -6   0  -1   -0.14    1.01
   6   0   1    1.12    1.05
   6   0   1   -0.12    1.25
  -6   0  -1   -1.21    1.18
   6   0   1   -0.10    1.55
  -8   0  -1    0.80    1.26
   8   0   1    1.80    2.02
   8   0   1    1.27    1.35
  -8   0  -1    0.01    1.43
   8   0   1    2.39    1.54
  10   0   1   -2.25    1.41
 -10   0  -1    0.16    1.83
 -10   0  -1    1.17    1.42
  10   0   1    4.74    2.45
  10   0   1    0.19    1.68
 -12   0  -1    1.21    2.03
  12   0   1    2.55    1.91
  12   0   1    0.34    2.68
  12   0   1    3.14    2.23
 -14   0  -1   -3.06    2.07
  14   0   1   -1.09    2.43
  14   0   1   -4.18    3.05
  16   0   1   -0.85    2.83
 -16   0  -1   -2.44    2.82
  16   0   1    5.00    4.29
  18   0   1   -0.42    3.73
 -18   0  -1    0.00    3.08
  18   0   1   -3.63    4.69
  20   0   1   -4.04    3.96
  20   0   1   -7.74    5.19
 -20   0  -1    5.85    4.28
 -21  -1   1    2.22    4.04
  21  -1  -1    7.22    4.64
  21  -1  -1    0.72    6.14
  21   1  -1    0.05    5.93
  21   1  -1    0.18    4.50
 -21   1   1    6.72    4.99
  19  -1  -1   49.60    7.06
  19  -1  -1   64.13    8.56
 -19  -1   1   65.69    7.13
 -19   1   1   65.23    7.43
  19   1  -1   67.55    7.84
  19   1  -1   56.85    8.38
  17  -1  -1   13.89    4.99
  17  -1  -1   14.71    4.04
 -17  -1   1    8.48    3.42
  17   1  -1   10.09    3.52
 -17   1   1   10.94    3.66
  17   1  -1    8.34    4.52
 -15  -1   1    4.84    2.71
  15  -1  -1    1.42    2.85
  15  -1  -1    2.43    3.58
  15  -1  -1    2.82    2.66
  15   1  -1    3.10    3.29
  15   1  -1    5.65    2.95
 -15   1   1    6.65    3.12
  13  -1  -1   84.46    6.10
  13  -1  -1   82.59    7.18
 -13  -1   1   85.67    6.11
 -13  -1   1   79.62    5.49
  13  -1  -1   81.97    5.57
  13   1  -1   76.96    6.58
  13   1  -1   79.48    5.95
 -13   1   1   86.34    6.11
 -11  -1   1    0.30    1.74
  11  -1  -1   -3.98    1.91
  11  -1  -1    2.40    1.77
 -11  -1   1    4.73    2.07
  11   1  -1    4.81    2.17
 -11   1   1    1.03    1.91
 -11   1   1    0.43    1.81
  11   1  -1    1.03    1.42
  11   1  -1    2.58    2.24
  -9  -1   1  503.81   20.46
   9  -1  -1  538.47   20.14
  -9  -1   1  550.26   20.04
   9  -1  -1  518.92   20.76
   9   1  -1  539.83   20.58
  -9   1   1  502.83   20.35
   9   1  -1  526.68   20.57
  -9   1   1  536.18   20.69
   9   1  -1  543.37   19.36
   7  -1  -1  463.71   17.95
   7  -1  -1  487.98   17.74
  -7  -1   1  486.07   17.68
  -7  -1   1  458.98   17.93
   7  -1  -1  448.02   18.06
  -7   1   1  476.03   18.06
   7   1  -1  460.89   17.93
   7   1  -1  467.90   17.24
   7   1  -1  471.51   17.92
   7   1  -1  472.09   17.45
  -7   1   1  473.76   17.93
   5  -1  -1  398.17   14.70
  -5  -1   1  395.79   14.82
   5  -1  -1  378.29   14.88
  -5  -1   1  398.99   14.68
   5  -1  -1  392.11   14.95
   5   1  -1  395.46   14.81
  -5   1   1  393.16   14.75
   5   1  -1  381.85   14.66
  -5   1   1  394.25   14.87
   3  -1  -1  947.98   32.75
   3  -1  -1  904.93   32.88
  -3  -1   1  955.96   32.82
  -3  -1   1  931.91   32.77
   3  -1  -1  917.91   32.85
   3   1  -1  909.94   32.63
  -3   1   1  929.97   32.81
   3   1  -1  888.48   32.67
  -3   1   1  904.42   32.67
  -3  -1  -1  425.47   15.47
  -3  -1  -1  424.58   15.39
   3  -1   1  422.33   15.46
   3  -1   1  395.52   15.82
  -3   1  -1  417.61   15.46
  -3   1  -1  419.20   15.35
   3   1   1  430.37   15.49
   3   1   1  410.19   15.77
  -5  -1  -1  599.48   21.64
   5  -1   1  592.68   21.53
   5  -1   1  568.00   22.11
  -5  -1  -1  579.58   21.50
  -5   1  -1  586.53   21.64
   5   1   1  577.97   21.65
   5   1   1  580.31   22.05
  -5   1  -1  594.30   21.66
  -7  -1  -1    2.31    1.52
   7  -1   1    2.90    1.93
  -7  -1  -1    2.67    1.52
   7  -1   1    1.62    1.45
   7   1   1    1.12    1.09
  -7   1  -1    0.97    1.46
  -7   1  -1    1.71    1.42
   7   1   1    2.87    1.96
   7   1   1    4.97    1.66
  -9  -1  -1   57.74    3.85
  -9  -1  -1   49.40    4.37
   9  -1   1   52.11    5.00
   9  -1   1   50.79    4.07
   9  -1   1   55.49    4.17
  -9   1  -1   52.35    3.19
   9   1   1   59.85    3.27
   9   1   1   54.14    4.12
   9   1   1   63.20    5.17
  -9   1  -1   45.96    4.06
 -11  -1  -1   10.64    2.64
 -11  -1  -1   16.41    2.53
  11  -1   1   15.85    2.87
  11  -1   1   10.47    3.36
  11  -1   1    9.51    2.39
  11   1   1   10.35    3.06
  11   1   1   13.12    2.78
 -11   1  -1   12.97    2.74
  11   1   1   12.27    2.34
 -13  -1  -1    6.57    2.76
  13  -1   1    5.44    2.62
  13  -1   1    8.94    2.93
  13  -1   1   13.11    3.91
 -13  -1  -1    3.11    2.44
 -13   1  -1    7.39    2.89
  13   1   1    7.35    2.81
  13   1   1    1.80    3.21
 -15  -1  -1    2.34    2.51
  15  -1   1    1.61    2.82
  15  -1   1   -2.36    3.57
 -15   1  -1   -0.47    2.63
  15   1   1    1.07    2.75
  15   1   1    0.27    3.75
 -17  -1  -1   -0.86    3.03
  17  -1   1    3.32    4.83
  17  -1   1    0.67    3.27
 -17   1  -1   -0.08    2.90
  17   1   1   -0.44    3.12
  17   1   1    3.68    5.04
  19  -1   1    6.71    4.32
  19  -1   1    3.56    5.73
 -19  -1  -1   -2.97    3.06
 -19   1  -1    6.39    3.82
  19   1   1   -1.01    5.82
  19   1   1    6.15    4.36
  20  -2  -1   -1.48    3.78
 -20  -2   1    9.00    4.05
  20  -2  -1    2.38    5.68
 -20   2   1   -0.08    4.02
  20   2  -1   -2.07    5.51
  20   2  -1   -3.12    3.63
  18  -2  -1   -1.07    3.54
  18  -2  -1   -6.62    4.28
 -18  -2   1    3.27    3.16
  18   2  -1   -4.43    3.91
  18   2  -1   -0.39    3.18
 -18   2   1    0.10    3.23
  16  -2  -1   13.96    3.77
 -16  -2   1    7.21    3.25
  16  -2  -1   18.72    5.09
  16  -2  -1    3.24    2.98
  16   2  -1    6.89    4.35
  16   2  -1    9.98    3.52
 -16   2   1    3.53    3.35
 -14  -2   1    3.75    2.66
  14  -2  -1    0.94    2.74
  14  -2  -1    6.97    3.54
 -14  -2   1    3.24    2.63
  14   2  -1    0.33    2.49
 -14   2   1    4.38    2.63
  14   2  -1    7.89    3.56
 -14   2   1    0.49    2.53
 -12  -2   1    4.54    2.28
  12  -2  -1    7.90    3.06
  12  -2  -1    6.85    2.26
 -12  -2   1    7.33    2.52
  12   2  -1    4.14    2.89
 -12   2   1    2.87    2.08
 -12   2   1    6.44    2.66
  12   2  -1    4.41    2.40
  10  -2  -1  423.30   16.78
 -10  -2   1  422.24   16.73
  10  -2  -1  417.27   17.67
 -10  -2   1  404.04   16.96
 -10   2   1  438.14   17.01
  10   2  -1  411.13   17.28
  10   2  -1  426.24   17.07
 -10   2   1  407.37   17.07
   8  -2  -1  123.54    7.02
  -8  -2   1  136.09    6.52
   8  -2  -1  135.73    6.88
   8  -2  -1  131.64    6.50
   8   2  -1  139.03    6.91
   8   2  -1  128.16    6.55
  -8   2   1  127.45    6.47
  -8   2   1  123.76    6.60
  -6  -2   1   74.12    4.25
  -6  -2   1   76.03    4.35
   6  -2  -1   75.81    4.52
   6  -2  -1   75.17    4.75
   6  -2  -1   73.21    4.24
  -6   2   1   80.41    4.29
  -6   2   1   73.06    4.24
   6   2  -1   77.23    4.46
   6   2  -1   68.18    4.14
   4  -2  -1 1488.79   51.99
   4  -2  -1 1450.62   51.51
  -4  -2   1 1439.81   51.51
   4  -2  -1 1428.31   51.76
  -4  -2   1 1416.41   51.56
  -4   2   1 1448.44   51.35
   4   2  -1 1445.63   51.37
   4   2  -1 1451.19   51.68
  -4   2   1 1468.86   51.49
   2  -2  -1 2761.87   98.06
   2  -2  -1 2780.28   97.55
   2  -2  -1 2773.57   97.75
   2   2  -1 2796.12   97.94
   2   2  -1 2821.80   97.38
   2   2  -1 2759.31   97.58
  -2   2   1 2769.07   97.55
  -2   2   1 2805.10   97.40
   0  -2   1 9864.17  336.84
   0  -2   1 9695.13  336.76
   0  -2  -1 9999.00  336.93
   0   2  -1 9280.97  336.89
   0   2   1 9737.50  336.90
   0   2  -1 9499.25  337.43
   2  -2   1 8315.19  282.63
  -2  -2  -1 8158.59  281.82
   2  -2   1 7789.11  281.98
  -2  -2  -1 8104.91  282.11
   2   2   1 8218.48  282.51
  -2   2  -1 7905.16  281.99
   2   2   1 8040.40  281.97
  -2   2  -1 8220.05  281.74
  -4  -2  -1   68.45    4.02
  -4  -2  -1   70.25    3.70
   4  -2   1   67.61    4.49
   4  -2   1   65.64    3.91
   4   2   1   70.42    3.87
  -4   2  -1   64.24    3.88
  -4   2  -1   70.83    3.73
   4   2   1   69.86    4.47
  -6  -2  -1 1003.85   35.85
   6  -2   1  951.30   36.69
   6  -2   1  994.16   35.94
  -6  -2  -1 1018.10   35.95
  -6   2  -1  965.71   35.94
   6   2   1  978.03   36.45
   6   2   1  986.08   35.96
  -6   2  -1  982.37   35.78
   8  -2   1   98.36    5.57
   8  -2   1   88.33    6.24
  -8  -2  -1   90.58    5.28
  -8  -2  -1   92.26    5.36
   8   2   1   97.71    6.19
  -8   2  -1   93.91    5.56
   8   2   1  101.37    5.61
  -8   2  -1   89.84    5.40
 -10  -2  -1    3.37    2.06
  10  -2   1   12.50    3.12
  10  -2   1   14.60    2.64
 -10  -2  -1   11.26    2.48
  10   2   1   10.77    3.24
  10   2   1    8.95    2.51
 -10   2  -1    8.65    2.29
 -10   2  -1    9.84    2.34
  12  -2   1   84.87    7.66
 -12  -2  -1   66.85    5.51
  12  -2   1   68.81    5.91
 -12  -2  -1   66.56    5.74
  12  -2   1   68.29    5.61
  12   2   1   59.81    5.80
  12   2   1   99.39    7.79
 -12   2  -1   70.71    5.91
  14  -2   1  100.72    7.00
  14  -2   1  112.97    7.62
 -14  -2  -1   85.78    7.35
 -14  -2  -1  104.24    6.92
  14  -2   1   99.16    9.25
  14   2   1   93.47    8.56
  14   2   1  102.54    7.49
 -14   2  -1   90.72    7.41
  16  -2   1    2.31    3.40
 -16  -2  -1    2.45    2.79
  16  -2   1    2.05    3.19
  16  -2   1    8.82    4.73
  16   2   1    0.55    4.34
 -16   2  -1    4.42    3.15
  16   2   1    2.50    3.30
  18  -2   1   20.17    5.02
 -18  -2  -1   18.26    4.55
  18  -2   1   21.91    6.34
  18   2   1   22.39    6.46
 -18   2  -1   20.52    5.14
  18   2   1   21.98    5.40
  20  -2   1    1.36    6.35
 -20  -2  -1   -2.42    3.45
  20  -2   1    3.49    4.54
  20   2   1   -4.34    4.39
  20   2   1   -5.27    6.07
 -20   2  -1    2.17    4.03
 -19  -3   1   73.70    7.95
  19  -3  -1   70.35    9.78
  19  -3  -1   55.73    7.40
  19   3  -1   52.86    7.06
 -19   3   1   62.32    7.52
  19   3  -1   52.46    8.62
  17  -3  -1   -3.64    3.05
  17  -3  -1    1.97    3.19
 -17  -3   1   -6.67    2.37
  17  -3  -1    2.34    4.94
 -17   3   1    4.11    3.41
  17   3  -1   -1.33    4.30
  17   3  -1    1.93    3.20
 -15  -3   1    0.13    2.43
 -15  -3   1   -3.08    2.73
  15  -3  -1    0.57    2.78
  15  -3  -1    5.17    4.08
 -15   3   1    2.46    2.74
 -15   3   1    1.78    2.63
  15   3  -1    0.77    3.63
  15   3  -1   -0.09    2.58
  13  -3  -1  108.49    7.31
 -13  -3   1   98.23    6.93
 -13  -3   1  109.76    7.17
  13  -3  -1  114.92    8.62
  13   3  -1  102.17    7.17
 -13   3   1  105.07    7.12
 -13   3   1  117.55    7.60
  13   3  -1  122.68    8.45
  11  -3  -1  147.36    8.83
 -11  -3   1  138.28    7.61
 -11  -3   1  120.21    7.40
  11  -3  -1  143.37    7.58
 -11   3   1  136.07    7.52
  11   3  -1  145.64    8.40
  11   3  -1  126.99    7.53
 -11   3   1  134.18    7.60
  -9  -3   1  238.26   10.98
   9  -3  -1  246.85   11.00
   9  -3  -1  257.19   12.01
  -9  -3   1  254.47   11.02
  -9   3   1  232.92   10.83
   9   3  -1  257.01   11.72
  -9   3   1  239.48   11.01
   9   3  -1  246.70   11.00
   7  -3  -1  267.46   12.27
  -7  -3   1  275.61   11.54
   7  -3  -1  264.32   11.44
  -7  -3   1  258.49   11.37
   7  -3  -1  274.39   11.90
   7   3  -1  272.20   11.40
   7   3  -1  289.05   12.02
  -7   3   1  264.80   11.37
  -7   3   1  264.90   11.28
  -5  -3   1    5.42    1.77
   5  -3  -1    9.70    2.38
   5  -3  -1    4.57    1.64
   5  -3  -1    5.28    1.77
  -5  -3   1    6.89    1.62
   5   3  -1    7.00    1.66
  -5   3   1    5.17    1.64
  -5   3   1    7.21    1.82
   5   3  -1    6.73    2.22
   3  -3  -1  398.66   14.59
  -3  -3   1  386.71   15.25
   3  -3  -1  392.85   15.10
   3  -3  -1  378.00   15.89
   3  -3  -1  405.09   15.39
   3   3  -1  389.89   14.85
  -3   3   1  394.35   14.93
   3   3  -1  385.28   15.75
  -3   3   1  401.57   15.04
   3   3  -1  392.85   15.10
  -1  -3   1  298.21   11.49
   1  -3  -1  273.98   12.15
   1  -3  -1  286.13   11.20
   1  -3  -1  283.21   11.22
   1  -3  -1  287.69   11.47
  -1  -3   1  287.63   11.00
  -1   3   1  301.16   11.34
  -1   3   1  289.56   12.37
   1   3  -1  273.53   12.17
  -1   3   1  286.56   11.15
   1   3  -1  297.46   11.40
   1   3  -1  293.22   11.05
  -1  -3  -1  849.53   30.44
  -1  -3  -1  863.01   30.64
   1  -3   1  853.80   31.79
   1  -3   1  845.91   30.73
   1  -3   1  857.86   30.89
  -1  -3  -1  843.24   31.02
   1   3   1  868.20   31.86
   1   3   1  839.29   30.88
  -1   3  -1  833.23   30.94
  -1   3  -1  858.10   31.91
  -1   3  -1  877.96   30.64
   1   3   1  848.36   30.71
  -3  -3  -1  616.44   22.14
   3  -3   1  571.12   23.12
   3  -3   1  572.79   22.32
  -3  -3  -1  592.58   22.48
   3  -3   1  623.48   21.73
   3   3   1  608.54   22.32
  -3   3  -1  612.40   22.04
  -3   3  -1  585.29   23.25
   3   3   1  612.33   23.16
  -3   3  -1  587.96   22.31
   5  -3   1  145.54    7.31
  -5  -3  -1  152.19    7.42
  -5  -3  -1  155.93    7.06
   5  -3   1  169.36    8.53
   5   3   1  157.60    7.23
  -5   3  -1  156.05    7.29
   5   3   1  158.11    8.05
  -5   3  -1  155.19    7.03
   7  -3   1  154.86    8.36
  -7  -3  -1  137.06    7.19
   7  -3   1  139.49    7.22
  -7  -3  -1  143.69    6.96
   7   3   1  151.56    8.05
  -7   3  -1  140.11    7.05
  -7   3  -1  129.22    6.82
   7   3   1  138.76    7.12
   9  -3   1   58.73    5.09
  -9  -3  -1   68.76    4.97
  -9  -3  -1   65.90    5.05
   9  -3   1   70.53    6.66
   9   3   1   57.60    5.90
  -9   3  -1   74.71    5.68
   9   3   1   75.27    6.00
  -9   3  -1   75.55    5.06
  11  -3   1   58.22    6.50
 -11  -3  -1   71.90    5.73
 -11  -3  -1   68.17    5.73
  11  -3   1   60.64    5.54
 -11   3  -1   53.48    5.18
 -11   3  -1   62.31    5.47
  11   3   1   55.17    5.40
  11   3   1   75.61    6.94
  13  -3   1   18.30    3.80
 -13  -3  -1   16.49    3.53
  13  -3   1   16.30    4.52
 -13  -3  -1   18.55    3.77
 -13   3  -1   16.41    3.72
  13   3   1   13.81    3.56
 -13   3  -1   18.76    3.81
  13   3   1    9.54    4.21
  15  -3   1    4.69    3.13
 -15  -3  -1    4.87    3.37
  15  -3   1    2.89    2.79
  15  -3   1    4.30    5.11
 -15  -3  -1    1.48    2.79
 -15   3  -1   -1.70    2.96
  15   3   1   -1.31    4.36
  15   3   1    5.88    3.33
  17  -3   1   15.26    6.30
  17  -3   1   19.01    4.90
 -17  -3  -1   26.68    4.77
  17  -3   1   15.40    4.42
  17   3   1   25.01    4.79
 -17   3  -1   17.56    4.48
  17   3   1   23.62    6.38
  19  -3   1   12.44    5.02
 -19  -3  -1   14.30    4.40
  19  -3   1    9.05    6.46
 -19   3  -1    7.04    4.95
  19   3   1    9.08    4.61
  19   3   1    4.26    6.22
  20  -4  -1   -2.70    3.82
  20  -4  -1   -4.62    5.82
 -20  -4   1   -4.34    3.24
 -20   4   1    0.07    4.15
  20   4  -1   -1.72    4.03
  20   4  -1    0.35    6.71
  18  -4  -1    2.99    3.75
 -18  -4   1    5.17    3.42
  18  -4  -1   -0.38    5.24
  18   4  -1   -0.11    5.45
  18   4  -1    1.05    3.68
 -18   4   1    2.18    4.12
 -18   4   1   -1.14    3.53
 -16  -4   1   83.55    7.44
 -16  -4   1   74.21    7.50
  16  -4  -1   87.86    9.60
  16  -4  -1   94.49    7.96
 -16   4   1   78.31    7.65
 -16   4   1   82.30    7.74
  16   4  -1   71.27    8.48
  16   4  -1   64.12    7.01
  14  -4  -1   68.18    7.91
 -14  -4   1   81.94    7.02
  14  -4  -1   68.05    6.73
 -14  -4   1   73.58    6.68
  14   4  -1   83.35    7.23
 -14   4   1   69.94    6.62
 -14   4   1   79.82    7.08
  14   4  -1   77.29    7.93
  12  -4  -1   22.44    5.03
 -12  -4   1   31.18    4.34
 -12  -4   1   23.93    3.95
  12  -4  -1   26.63    4.00
 -12   4   1   17.43    3.56
 -12   4   1   20.74    4.78
  12   4  -1   16.13    3.64
  12   4  -1   21.90    4.54
  10  -4  -1  123.93    9.34
  10  -4  -1  107.75    6.79
 -10  -4   1  110.11    6.86
 -10  -4   1  104.92    6.65
 -10   4   1  107.04    6.77
  10   4  -1  118.86    7.86
  10   4  -1  102.71    6.78
 -10   4   1  110.02    6.64
  -8  -4   1   31.96    3.85
   8  -4  -1   23.52    3.35
  -8  -4   1   28.92    3.44
   8  -4  -1   39.99    4.78
   8   4  -1   31.64    4.41
   8   4  -1   30.78    3.53
  -8   4   1   32.91    3.50
  -8   4   1   30.93    3.59
   6  -4  -1  302.99   13.14
   6  -4  -1  302.98   13.71
   6  -4  -1  302.11   12.66
  -6  -4   1  274.79   12.67
  -6  -4   1  279.15   12.43
   6  -4  -1  325.75   11.35
   6   4  -1  285.68   13.31
   6   4  -1  302.67   12.49
  -6   4   1  293.36   12.37
  -6   4   1  303.71   12.48
  -4  -4   1  122.96    6.46
  -4  -4   1  127.88    5.28
   4  -4  -1  123.94    6.34
   4  -4  -1  127.00    6.71
   4  -4  -1  129.58    7.49
   4  -4  -1  131.33    5.62
   4   4  -1  111.44    6.13
  -4   4   1  127.57    6.19
   4   4  -1  112.43    7.18
  -4   4   1  122.34    6.15
   4   4  -1  115.65    5.93
   2  -4  -1   26.30    2.69
  -2  -4   1   26.53    2.42
   2  -4  -1   39.82    4.39
  -2  -4   1   23.41    2.89
   2  -4  -1   27.96    2.93
   2  -4  -1   28.94    3.13
   2   4  -1   31.50    3.04
   2   4  -1   26.07    2.66
  -2   4   1   30.45    2.90
  -2   4   1   27.63    4.08
  -2   4   1   33.44    3.01
   2   4  -1   26.57    3.56
   0  -4   1 1270.68   46.31
   0  -4  -1 1290.67   45.98
   0  -4  -1 1260.34   46.22
   0  -4  -1 1275.54   46.35
   0  -4   1 1296.29   47.42
   0  -4   1 1306.93   46.13
   0  -4  -1 1298.05   47.47
   0   4   1 1278.90   47.58
   0   4   1 1300.60   46.16
   0   4  -1 1259.42   46.32
   0   4   1 1265.61   46.29
   0   4  -1 1329.30   46.03
   0   4  -1 1293.25   47.67
  -2  -4  -1  135.35    6.92
   2  -4   1  149.41    6.90
  -2  -4  -1  145.11    6.33
   2  -4   1  139.54    7.82
   2  -4   1  149.59    6.49
  -2  -4  -1  137.32    8.11
  -2  -4  -1  143.57    6.08
   2   4   1  145.19    6.59
  -2   4  -1  138.86    6.42
   2   4   1  138.91    6.82
  -2   4  -1  136.73    8.12
  -2   4  -1  142.92    6.85
  -4  -4  -1  214.79    8.28
   4  -4   1  206.41    8.40
  -4  -4  -1  199.53    8.93
  -4  -4  -1  213.87    9.56
   4  -4   1  197.23    9.33
   4  -4   1  225.25   10.75
  -4   4  -1  214.99   10.58
  -4   4  -1  198.34    8.82
   4   4   1  209.93   10.46
  -4   4  -1  199.11    9.22
   4   4   1  201.59    9.15
   6  -4   1   55.05    5.66
  -6  -4  -1   56.20    4.14
   6  -4   1   56.14    3.26
  -6  -4  -1   62.75    4.97
   6  -4   1   44.20    4.27
  -6   4  -1   62.08    4.86
   6   4   1   61.30    5.79
  -6   4  -1   53.20    4.00
   6   4   1   53.52    4.46
  -8  -4  -1   14.07    2.65
   8  -4   1   19.04    3.13
  -8  -4  -1   16.53    3.10
   8  -4   1   17.04    4.01
   8   4   1   22.15    4.29
   8   4   1   10.37    2.58
  -8   4  -1   15.53    2.88
  -8   4  -1   16.53    2.76
  10  -4   1  106.48    7.93
 -10  -4  -1  101.88    6.67
 -10  -4  -1   92.05    6.29
  10  -4   1   85.77    6.45
 -10   4  -1  100.92    6.44
 -10   4  -1   94.90    6.45
  10   4   1   98.72    6.60
  10   4   1  102.05    8.36
 -12  -4  -1    9.49    2.84
  12  -4   1   11.14    3.41
 -12  -4  -1   10.56    3.50
  12  -4   1   13.01    4.52
 -12   4  -1   10.79    3.19
  12   4   1    9.17    3.19
  12   4   1   14.21    4.61
 -12   4  -1    4.68    2.83
  14  -4   1    5.31    4.78
 -14  -4  -1    0.70    2.58
  14  -4   1   -0.38    3.09
 -14  -4  -1   -2.61    2.75
  14   4   1   -0.68    2.69
 -14   4  -1   -0.57    3.08
  14   4   1   -0.54    4.07
 -14   4  -1    1.54    2.75
 -16  -4  -1   32.07    5.24
 -16  -4  -1   42.62    6.08
  16  -4   1   27.82    6.96
  16  -4   1   23.62    5.12
  16  -4   1   38.40    5.72
  16   4   1   40.13    7.63
  16   4   1   28.13    5.03
 -16   4  -1   32.21    5.39
  18  -4   1    7.54    6.52
 -18  -4  -1    7.34    3.96
  18  -4   1   -1.13    3.69
  18  -4   1    2.31    4.41
 -18   4  -1    0.16    4.11
  18   4   1   10.70    4.24
  18   4   1    2.86    6.41
  19  -5  -1    0.58    4.36
 -19  -5   1   -5.53    3.30
  19  -5  -1   -2.30    6.36
 -19   5   1   -0.57    4.32
  19   5  -1   -3.74    3.71
  19   5  -1   -2.46    6.06
 -19   5   1    0.73    4.27
 -17  -5   1    3.39    4.04
  17  -5  -1   13.00    4.49
 -17  -5   1    5.13    3.60
  17  -5  -1    3.24    5.58
  17   5  -1   -0.89    5.68
 -17   5   1    7.58    3.75
  17   5  -1    3.16    3.93
 -17   5   1    6.07    3.91
 -15  -5   1   -0.23    3.00
  15  -5  -1    3.78    5.21
 -15  -5   1   -1.24    3.56
  15  -5  -1    1.70    3.28
 -15   5   1    2.87    3.42
  15   5  -1    4.53    5.09
  15   5  -1   -4.30    3.24
 -15   5   1    0.44    3.00
 -13  -5   1   -1.57    3.07
  13  -5  -1   -4.90    4.13
 -13  -5   1    1.62    2.55
  13  -5  -1   -0.76    2.82
  13   5  -1    0.08    2.64
 -13   5   1   -0.56    2.49
 -13   5   1   -0.19    2.70
  13   5  -1    3.86    4.96
 -11  -5   1   68.90    6.36
 -11  -5   1   55.60    5.53
  11  -5  -1   69.35    7.66
  11  -5  -1   46.28    5.25
  11   5  -1   68.41    7.37
 -11   5   1   55.03    5.49
  11   5  -1   61.04    5.86
 -11   5   1   68.02    5.99
  -9  -5   1   52.01    5.48
   9  -5  -1   51.23    5.19
   9  -5  -1   54.25    6.57
  -9  -5   1   54.74    5.15
   9   5  -1   37.53    4.51
  -9   5   1   59.63    5.30
  -9   5   1   59.61    5.20
   9   5  -1   67.65    6.80
   7  -5  -1   16.93    3.19
   7  -5  -1   26.27    4.47
  -7  -5   1   18.39    2.99
  -7  -5   1   15.86    3.04
  -7   5   1   13.59    2.73
   7   5  -1   16.17    3.91
   7   5  -1   15.88    2.81
  -7   5   1   17.48    2.95
   5  -5  -1   33.62    4.89
  -5  -5   1   35.02    2.58
  -5  -5   1   22.65    3.39
   5  -5  -1   31.79    3.78
   5  -5  -1   31.57    2.87
   5   5  -1   27.11    3.41
   5   5  -1   29.97    3.35
  -5   5   1   28.82    3.35
   5   5  -1   38.95    4.72
  -5   5   1   29.73    3.38
   3  -5  -1  239.69   11.01
   3  -5  -1  250.41   11.94
  -3  -5   1  229.20   10.76
   3  -5  -1  240.68   10.55
   3  -5  -1  233.55   10.04
  -3  -5   1  227.72    9.65
  -3   5   1  230.06   10.34
   3   5  -1  237.48   11.92
   3   5  -1  239.53   10.53
   3   5  -1  254.07   10.38
  -3   5   1  236.98   10.39
  -3   5   1  250.27   12.11
   1  -5  -1  419.24   16.80
   1  -5  -1  417.16   18.27
  -1  -5   1  423.77   16.45
   1  -5  -1  426.09   17.02
   1  -5  -1  437.13   16.68
  -1  -5   1  422.78   18.30
  -1  -5   1  423.52   17.03
   1   5  -1  421.08   18.45
  -1   5   1  419.66   16.72
   1   5  -1  412.52   16.88
  -1   5   1  432.72   16.80
  -1   5   1  425.22   18.61
   1   5  -1  440.01   16.63
   1  -5   1  569.62   22.05
  -1  -5  -1  596.13   23.75
   1  -5   1  569.57   22.08
  -1  -5  -1  563.75   22.41
  -1  -5  -1  569.75   21.62
   1  -5   1  616.60   23.90
  -1   5  -1  583.13   23.87
   1   5   1  607.72   23.99
  -1   5  -1  567.18   22.29
   1   5   1  579.75   22.22
   1   5   1  573.65   22.05
  -1   5  -1  579.27   21.87
   3  -5   1   48.38    5.36
  -3  -5  -1   46.79    4.44
   3  -5   1   47.05    4.36
  -3  -5  -1   56.54    3.36
  -3  -5  -1   54.25    6.01
   3  -5   1   49.45    3.68
  -3   5  -1   50.19    3.73
   3   5   1   50.55    4.12
   3   5   1   57.73    4.66
  -3   5  -1   51.68    5.72
  -3   5  -1   51.60    4.42
   3   5   1   51.47    5.83
   5  -5   1  333.00   12.67
   5  -5   1  343.71   15.49
   5  -5   1  311.20   13.81
  -5  -5  -1  303.96   13.91
   5   5   1  336.16   15.34
  -5   5  -1  315.97   13.55
   5   5   1  312.48   13.67
  -5   5  -1  309.99   13.17
   5   5   1  331.15   13.56
  -5   5  -1  309.15   15.10
  -7  -5  -1   74.75    5.18
  -7  -5  -1   74.81    6.23
   7  -5   1   90.12    8.00
   7  -5   1   71.07    6.00
  -7   5  -1   76.97    5.44
   7   5   1   72.25    6.94
  -7   5  -1   76.01    5.13
   7   5   1   72.43    5.61
   9  -5   1  105.05    9.17
   9  -5   1   98.47    7.15
  -9  -5  -1  118.10    7.64
  -9  -5  -1  100.39    6.64
  -9   5  -1  107.58    6.68
  -9   5  -1  108.72    6.97
   9   5   1  115.25    7.34
   9   5   1  125.55    9.78
 -11  -5  -1  203.71   10.95
 -11  -5  -1  192.53   10.41
  11  -5   1  229.49   13.24
  11  -5   1  183.66   10.73
  11   5   1  212.71   10.96
 -11   5  -1  186.58   10.54
 -11   5  -1  210.10   10.41
  11   5   1  210.54   12.58
  13  -5   1   36.27    7.13
  13  -5   1   25.21    4.69
 -13  -5  -1   25.68    4.41
 -13  -5  -1   26.48    4.81
 -13   5  -1   22.96    4.65
  13   5   1   16.53    4.08
 -13   5  -1   25.25    4.29
  13   5   1   25.75    6.01
 -15  -5  -1    1.55    3.08
 -15  -5  -1    4.64    3.97
  15  -5   1    3.88    3.57
  15  -5   1    0.45    5.41
 -15   5  -1    4.45    3.53
 -15   5  -1    2.92    3.85
  15   5   1   -0.53    3.07
  15   5   1   -0.56    5.04
  17  -5   1    7.36    4.47
  17  -5   1   20.83    7.59
  17  -5   1   15.82    4.70
 -17  -5  -1   13.94    4.62
 -17  -5  -1   19.15    5.37
 -17   5  -1   13.11    5.07
 -17   5  -1   16.07    5.18
  17   5   1   12.56    6.70
  17   5   1   13.74    4.45
 -18  -6   1  -11.96    3.00
 -18  -6   1   -4.12    4.34
  18  -6  -1    0.25    6.61
  18  -6  -1   -0.58    3.87
 -18   6   1    3.15    4.29
 -18   6   1    0.17    4.16
  18   6  -1    5.18    6.94
  18   6  -1    1.81    4.23
  16  -6  -1   36.96    6.10
  16  -6  -1   37.09    7.97
 -16  -6   1   29.23    5.44
 -16  -6   1   39.28    6.37
  16   6  -1   25.78    5.50
 -16   6   1   23.48    4.96
 -16   6   1   32.88    6.13
  16   6  -1   11.64    6.81
  14  -6  -1    5.00    3.38
  14  -6  -1    6.91    5.49
 -14  -6   1    3.55    3.38
 -14  -6   1    0.44    2.93
 -14   6   1   -0.15    2.89
  14   6  -1    0.17    3.42
  14   6  -1    1.32    5.26
 -14   6   1    2.36    3.08
 -12  -6   1    1.67    3.51
  12  -6  -1   -1.96    4.86
 -12  -6   1    4.25    2.73
  12  -6  -1   -0.45    2.81
  12   6  -1    2.31    4.77
 -12   6   1    2.52    2.87
  12   6  -1    4.28    3.11
 -12   6   1    4.01    3.08
  10  -6  -1   42.00    6.60
 -10  -6   1   38.63    5.39
  10  -6  -1   37.32    4.87
 -10  -6   1   44.97    5.09
  10   6  -1   36.81    4.91
  10   6  -1   38.14    6.46
 -10   6   1   32.75    4.46
 -10   6   1   36.75    4.76
   8  -6  -1    7.76    2.99
  -8  -6   1    1.01    2.66
   8  -6  -1    0.97    3.89
   8   6  -1    8.73    4.24
  -8   6   1    4.18    2.49
   8   6  -1    7.63    2.70
  -8   6   1    5.26    2.64
   8   6  -1    6.90    2.79
  -6  -6   1  175.35    9.98
   6  -6  -1  182.80   11.43
   6  -6  -1  188.82    9.61
  -6   6   1  184.42    9.26
   6   6  -1  204.92   11.75
  -6   6   1  195.89    9.44
   6   6  -1  197.41    9.44
   6   6  -1  184.10    9.63
   4  -6  -1  157.18    7.33
   4  -6  -1  135.18    9.55
  -4  -6   1  137.02    6.72
   4  -6  -1  143.74    7.73
  -4  -6   1  137.61    8.17
   4   6  -1  148.12    9.52
   4   6  -1  139.14    7.52
  -4   6   1  137.43    7.57
   4   6  -1  145.90    7.89
  -4   6   1  152.31    7.66
   2  -6  -1  459.01   18.36
  -2  -6   1  471.68   17.93
   2  -6  -1  450.49   18.40
  -2  -6   1  463.85   18.87
   2  -6  -1  450.57   20.33
   2   6  -1  447.93   20.51
   2   6  -1  475.30   18.72
  -2   6   1  486.48   20.81
   2   6  -1  456.76   18.26
  -2   6   1  458.16   18.51
  -2   6   1  455.65   18.40
   0  -6   1   20.88    2.97
   0  -6   1   11.71    5.22
   0  -6  -1   17.09    2.71
   0  -6  -1   29.01    3.54
   0  -6   1   16.93    2.89
   0  -6  -1   19.07    4.37
   0   6  -1   17.38    3.06
   0   6  -1   17.95    4.42
   0   6   1   16.41    3.06
   0   6  -1   14.82    2.61
   0   6   1   19.03    4.95
   0   6   1   15.90    2.85
   2  -6   1   16.70    4.40
  -2  -6  -1   11.09    2.92
   2  -6   1   11.01    2.56
  -2  -6  -1   14.08    2.35
   2  -6   1   18.28    3.17
  -2   6  -1    9.96    2.76
  -2   6  -1   21.36    4.96
   2   6   1   22.36    4.65
   2   6   1   16.03    2.82
   2   6   1   16.17    2.83
  -2   6  -1   13.38    2.44
   4  -6   1   27.61    5.35
   4  -6   1   25.46    3.13
   4  -6   1   22.93    3.53
  -4  -6  -1   15.40    3.40
   4   6   1   27.95    3.42
  -4   6  -1   26.61    3.33
  -4   6  -1   24.44    3.55
   4   6   1   23.76    3.51
   4   6   1   25.71    5.28
  -6  -6  -1   91.80    6.90
   6  -6   1  105.86    6.99
   6  -6   1  110.97    9.38
  -6   6  -1  103.21    6.75
  -6   6  -1  103.53    6.35
   6   6   1  104.53    6.91
   6   6   1   98.08    9.14
   6   6   1  114.64    6.89
  -8  -6  -1   -0.32    2.73
   8  -6   1    2.63    3.01
   8  -6   1   10.49    4.61
  -8  -6  -1    3.87    2.48
   8   6   1    5.20    4.35
   8   6   1    5.17    3.10
  -8   6  -1    0.38    2.35
  -8   6  -1    5.93    2.86
 -10  -6  -1   80.14    6.71
  10  -6   1   82.38    9.16
 -10  -6  -1   70.17    6.91
  10  -6   1   80.19    7.29
  10   6   1   88.93    7.38
 -10   6  -1   85.94    6.82
 -10   6  -1   73.93    6.70
  10   6   1   79.58    8.72
 -12  -6  -1   23.85    4.96
 -12  -6  -1   30.34    4.65
  12  -6   1   22.03    6.56
  12  -6   1   22.47    4.59
 -12   6  -1   31.07    4.98
  12   6   1   30.56    5.07
 -12   6  -1   34.57    4.92
  12   6   1   22.98    6.11
  14  -6   1    7.36    6.25
 -14  -6  -1    1.27    3.89
 -14  -6  -1   -1.02    2.95
  14  -6   1   -3.20    2.96
  14   6   1   -5.02    3.24
 -14   6  -1    4.15    3.46
 -14   6  -1    2.49    3.56
  14   6   1    3.40    5.66
 -16  -6  -1   -1.15    3.61
  16  -6   1    1.97    3.91
  16  -6   1    2.24    6.87
 -16  -6  -1   -3.33    4.17
  16   6   1   -1.97    3.86
 -16   6  -1   -1.46    3.85
  16   6   1    0.33    6.03
 -16   6  -1    1.80    4.22
  17  -7  -1   14.95    8.30
 -17  -7   1   -2.03    4.65
  17  -7  -1    3.86    4.25
 -17  -7   1    4.90    3.94
  17   7  -1    1.33    4.71
  17   7  -1    0.08    6.84
 -17   7   1    4.44    5.06
 -17   7   1   -3.77    4.11
  15  -7  -1    9.01    4.26
  15  -7  -1    7.16    7.56
 -15  -7   1   19.97    5.63
 -15  -7   1   21.58    4.80
  15   7  -1   21.51    5.35
 -15   7   1   22.47    5.29
 -15   7   1   21.39    4.82
  15   7  -1   19.45    7.48
 -13  -7   1    5.89    4.54
  13  -7  -1    6.90    3.95
 -13  -7   1   14.64    3.96
  13  -7  -1    5.84    6.04
 -13   7   1   10.69    3.99
  13   7  -1    4.08    4.03
  13   7  -1    8.23    5.98
 -13   7   1   13.25    4.26
 -11  -7   1   -1.15    2.61
  11  -7  -1    1.58    3.42
 -11  -7   1    3.76    3.73
  11  -7  -1    9.44    6.33
  11   7  -1    1.12    3.05
 -11   7   1    2.48    3.40
  11   7  -1    3.34    5.02
  11   7  -1   10.17    4.03
 -11   7   1    2.06    3.01
   9  -7  -1   29.29    5.05
  -9  -7   1   33.97    5.31
   9  -7  -1   39.13    7.10
   9   7  -1   40.44    5.08
  -9   7   1   34.19    4.71
  -9   7   1   38.23    4.90
   9   7  -1   37.01    6.77
   9   7  -1   34.34    4.99
  -7  -7   1    8.12    3.24
   7  -7  -1   19.83    3.95
   7  -7  -1   23.43    5.53
   7   7  -1   18.36    3.95
   7   7  -1   13.96    5.24
  -7   7   1   16.13    3.44
  -7   7   1   16.69    3.48
   7   7  -1   12.80    3.54
   5  -7  -1  104.85    7.07
  -5  -7   1   88.86    7.48
   5  -7  -1  109.61    9.86
   5   7  -1   82.55    6.71
  -5   7   1   92.18    6.53
   5   7  -1   98.76    6.97
   5   7  -1  111.69    9.91
  -5   7   1   97.93    6.78
   3  -7  -1   -2.13    2.06
  -3  -7   1    3.68    2.66
  -3  -7   1   -3.19    2.77
   3  -7  -1    5.67    4.84
   3  -7  -1   -0.60    2.33
  -3   7   1    1.23    2.47
  -3   7   1    1.81    2.18
   3   7  -1   -0.47    2.18
   3   7  -1    2.24    3.99
   3   7  -1    1.05    2.52
  -1  -7   1   23.08    3.67
  -1  -7   1   25.84    3.37
   1  -7  -1   21.04    3.34
   1  -7  -1   20.65    3.63
  -1   7   1   22.18    3.60
   1   7  -1   20.22    3.67
  -1   7   1   18.78    3.33
   1   7  -1   18.88    5.34
   1   7  -1   14.17    2.97
   1  -7   1  108.89    6.87
  -1  -7  -1  115.94    6.44
   1  -7   1   98.31    6.63
  -1  -7  -1   99.28    6.99
  -1   7  -1  124.89   10.70
   1   7   1  116.27    6.91
   1   7   1  110.32    6.85
   1   7   1  122.66   10.59
  -1   7  -1   97.68    6.41
  -1   7  -1  100.35    7.04
  -3  -7  -1  101.57    7.37
   3  -7   1  121.80    7.07
   3  -7   1  115.54    7.28
  -3   7  -1  112.05    7.38
   3   7   1  109.92    7.24
  -3   7  -1  120.47    6.93
   3   7   1  110.09    9.84
   3   7   1  123.46    7.39
   5  -7   1  111.92    7.71
  -5  -7  -1  112.55    7.87
   5   7   1  131.41    7.73
  -5   7  -1  113.99    7.20
   5   7   1  114.76    7.47
  -5   7  -1  116.63    7.62
   5   7   1  143.27   11.56
   7  -7   1    3.97    3.36
  -7  -7  -1    3.78    2.92
   7  -7   1   11.12    5.68
  -7   7  -1    0.68    2.94
   7   7   1    5.14    3.04
   7   7   1    9.28    5.78
  -7   7  -1    3.63    2.72
   7   7   1    6.93    3.09
   9  -7   1   50.08    6.26
   9  -7   1   76.63    9.25
  -9  -7  -1   71.66    7.09
   9   7   1   67.48    9.03
   9   7   1   64.67    6.55
   9   7   1   56.58    6.18
  -9   7  -1   58.13    6.14
  -9   7  -1   55.22    5.87
  11  -7   1   69.55    7.38
 -11  -7  -1   76.25    7.12
  11  -7   1   86.44   11.06
 -11  -7  -1   64.69    7.52
  11   7   1   87.15    7.99
 -11   7  -1   85.09    7.52
  11   7   1   83.59   10.35
 -11   7  -1   67.39    7.01
  13  -7   1   19.78    5.35
 -13  -7  -1   28.37    5.78
  13  -7   1   38.31    9.00
 -13  -7  -1   28.50    5.10
 -13   7  -1   34.55    5.56
  13   7   1   22.76    6.96
  13   7   1   30.35    5.44
 -13   7  -1   38.61    6.16
  15  -7   1   39.59    6.35
 -15  -7  -1   24.80    5.17
 -15  -7  -1   31.75    6.53
  15   7   1   34.29    8.78
 -15   7  -1   32.19    5.85
  15   7   1   42.01    6.52
 -14  -8   1    8.73    5.01
  14  -8  -1    8.94    4.39
  14   8  -1    4.65    4.31
  14   8  -1    2.82    4.69
  14   8  -1    9.46    7.41
 -14   8   1    2.59    4.25
 -14   8   1   13.89    5.76
 -12  -8   1    0.37    4.18
  12  -8  -1    2.36    4.21
  12   8  -1   -1.63    4.27
 -12   8   1   -0.23    3.75
  12   8  -1    1.92    6.37
 -12   8   1    5.48    3.96
  12   8  -1   -0.04    3.83
 -10  -8   1    5.93    4.06
  10  -8  -1   11.63    4.50
 -10   8   1   13.20    4.02
  10   8  -1    3.76    3.80
 -10   8   1    5.67    3.61
  10   8  -1    8.55    6.16
  10   8  -1   14.22    4.36
   8  -8  -1   -2.71    3.11
  -8  -8   1   -0.84    3.24
   8   8  -1    0.35    3.24
   8   8  -1    7.90    4.06
  -8   8   1   -0.34    2.84
  -8   8   1   -5.58    2.45
   8   8  -1    4.58    5.32
  -6  -8   1   92.31    8.16
   6  -8  -1  106.41    8.37
   6   8  -1   95.10    7.10
   6   8  -1  109.86   10.43
   6   8  -1  101.54    7.96
  -6   8   1   93.83    7.09
  -6   8   1  100.84    7.80
  -4  -8   1    2.53    3.04
   4  -8  -1    1.87    2.92
   4   8  -1    9.64    3.36
   4   8  -1    1.55    5.19
  -4   8   1    0.07    2.97
  -4   8   1    7.19    3.09
   4   8  -1   -1.83    3.13
   2  -8  -1   68.44    6.25
   2  -8  -1   73.73    6.43
  -2  -8   1   65.51    6.34
   2   8  -1   62.73    5.88
  -2   8   1   62.96    5.87
  -2   8   1   79.47    6.53
   2   8  -1   72.28    6.50
   2   8  -1   79.30    9.52
   0  -8   1  114.14    7.82
   0  -8   1  126.90    7.61
   0  -8  -1  127.95    7.52
   0  -8  -1  117.47    8.02
   0   8   1  124.08    8.09
   0   8   1  114.18    7.67
   0   8  -1  140.93    8.34
   0   8  -1  108.52    7.69
   2  -8   1    7.80    3.12
  -2  -8  -1   12.73    3.60
   2  -8   1    9.60    3.32
   2   8   1    7.56    3.22
   2   8   1    8.37    3.15
  -2   8  -1   11.78    3.70
  -2   8  -1   10.34    3.64
  -4  -8  -1    7.77    3.34
   4  -8   1    6.74    3.19
   4   8   1    9.85    3.75
  -4   8  -1    7.44    5.85
  -4   8  -1    7.72    3.68
   4   8   1    8.79    3.49
   4   8   1   13.67    6.39
   6  -8   1   -3.33    3.33
  -6  -8  -1    1.45    2.90
  -6   8  -1    3.23    3.48
   6   8   1    3.76    3.19
   6   8   1   -0.42    5.17
   6   8   1    4.34    3.30
   8  -8   1   -4.70    3.24
  -8  -8  -1    2.36    3.87
   8   8   1    2.45    3.71
   8   8   1    1.91    3.37
  -8   8  -1   -5.03    3.18
   8   8   1    3.05    5.70
  10  -8   1    1.51    3.84
 -10  -8  -1    9.06    4.43
 -10   8  -1    6.31    3.84
  10   8   1    4.91    6.07
  10   8   1    7.13    3.89
  10   8   1   14.01    4.48
  12  -8   1   60.35    7.88
 -12  -8  -1   83.52    8.94
  12   8   1   62.59    7.53
  12   8   1   72.69   11.18
 -12   8  -1   96.18    8.64
  12   8   1   71.37    8.20
 -14  -8  -1    6.56    5.02
  14  -8   1    4.53    4.03
 -14  -8  -1    2.28    4.00
  14   8   1    0.15    4.20
  14   8   1    0.40    7.27
 -14   8  -1   -2.88    3.95
  13  -9  -1    8.46    5.70
 -13  -9   1    4.79    5.19
  13   9  -1    2.37    5.07
  13   9  -1   11.63    8.25
 -13   9   1   -1.86    4.36
  13   9  -1   -1.45    5.23
  11  -9  -1    2.65    4.79
 -11  -9   1   -0.06    4.26
  11   9  -1   -2.22    4.79
  11   9  -1    1.58    4.74
  11   9  -1   -8.76    6.80
 -11   9   1    0.17    3.96
  -9  -9   1    9.86    4.41
   9  -9  -1   15.94    5.11
  -9   9   1   10.14    4.19
   9   9  -1   18.32    5.45
   9   9  -1   24.24    5.59
   9   9  -1   19.42    7.38
   7  -9  -1    6.43    4.06
  -7  -9   1    2.15    3.56
   7   9  -1    6.28    6.27
   7   9  -1    5.56    3.88
  -7   9   1    1.06    3.60
   7   9  -1    4.80    7.15
   5  -9  -1   47.27    6.29
  -5  -9   1   51.44    6.66
  -5   9   1   57.32    6.30
   5   9  -1   59.78    6.78
  -5   9   1   59.28    6.59
   5   9  -1   59.53   10.36
  -3  -9   1   35.36    5.46
   3  -9  -1   42.92    5.45
  -3   9   1   52.33    6.03
   3   9  -1   40.61    5.59
  -3   9   1   37.78    5.44
   1  -9  -1   14.72    3.76
   1  -9  -1    9.61    3.83
  -1  -9   1    9.17    3.52
   1   9  -1    9.11    4.26
  -1   9   1    7.35    3.72
  -1   9   1    8.30    3.62
   1  -9   1   15.49    4.21
  -1  -9  -1   21.89    4.40
   1  -9   1   19.51    4.26
   1   9   1   19.42    4.32
  -1   9  -1   23.83    4.83
   1   9   1   18.92    4.18
  -3  -9  -1   61.84    6.81
   3  -9   1   59.76    6.49
  -3   9  -1   53.55    6.38
   3   9   1   62.14    6.50
   3   9   1   50.51    6.00
  -5  -9  -1    3.62    3.86
   5  -9   1    3.45    3.55
  -5   9  -1   -2.12    3.52
   5   9   1    1.81    3.97
   5   9   1   -2.72    3.26
   7  -9   1    9.47    4.29
  -7  -9  -1    2.54    3.81
  -7   9  -1    5.78    4.18
   7   9   1   15.55    4.37
   7   9   1    1.13    3.98
  -9  -9  -1    1.31    3.56
   9  -9   1    2.59    4.13
   9   9   1   -1.92    3.92
   9   9   1    1.16    4.43
  -9   9  -1    2.56    3.90
  11  -9   1   -2.07    4.30
 -11  -9  -1    4.31    5.25
 -11   9  -1   -0.21    4.55
  11   9   1    2.03    9.55
  11   9   1   13.92    5.69
  11   9   1    0.71    4.42
  10 -10  -1   46.50    7.46
 -10 -10   1   43.65    7.11
  10  10  -1   43.16    7.45
  -8 -10   1   -2.02    4.07
   8 -10  -1   -2.98    3.89
   8  10  -1    3.97    4.89
  -8  10   1    7.76    6.76
  -6 -10   1    2.81    3.85
   6 -10  -1   -0.85    3.93
   6  10  -1   -1.00    4.49
  -6  10   1    3.06    5.54
  -4 -10   1   16.17    4.79
   4 -10  -1   10.54    4.64
  -4  10   1   19.29    6.52
   4  10  -1   16.26    5.16
  -2 -10   1   -2.20    3.20
  -2  10   1    1.44    5.86
   2  10  -1   -1.66    3.92
   0 -10   1    2.09    3.89
   0 -10  -1    0.98    3.49
   0  10  -1    3.67    4.20
   2 -10   1    1.94    3.98
  -2 -10  -1   -2.48    3.32
  -2  10  -1    5.93    4.45
   4 -10   1   11.24    4.68
  -4 -10  -1    7.23    4.43
  -4  10  -1    1.40    4.29
  -6 -10  -1    0.06    3.50
   6 -10   1    2.12    4.32
  -6  10  -1   -4.33    4.07
   6  10   1    0.20    5.96
  -8 -10  -1   14.32    4.99
   8 -10   1   18.57    5.89
  -8  10  -1    8.42    5.15
   8  10   1    7.57    5.76
   5 -11  -1    6.83    5.28
  -5 -11   1   16.34    4.97
   5  11  -1   20.70    6.73
  -3 -11   1   10.68    5.00
   3  11  -1    8.07    5.70
  -1 -11   1    2.26    5.34
   1  11  -1    3.84    5.58
  -1 -11  -1    5.58    4.59
  -1  11  -1    5.26    5.69
  -3 -11  -1    4.08    4.37
  -3  11  -1   12.75    6.09
  20   0  -2    0.38    3.70
 -20   0   2    2.03    4.03
  20   0  -2   -0.05    4.98
  18   0  -2   14.12    4.07
  18   0  -2    9.77    4.85
 -18   0   2   15.61    4.56
  16   0  -2  213.55   11.96
 -16   0   2  226.84   11.53
  16   0  -2  197.84   11.37
  14   0  -2  543.38   22.71
 -14   0   2  539.54   22.38
  14   0  -2  536.64   22.56
  14   0  -2  577.09   22.52
 -12   0   2  436.56   16.37
 -12   0   2  399.10   17.41
  12   0  -2  409.69   17.50
  12   0  -2  440.98   16.62
  12   0  -2  429.36   17.65
  10   0  -2  642.67   23.84
  10   0  -2  608.95   24.19
 -10   0   2  655.01   23.38
 -10   0   2  634.26   24.30
 -10   0   2  622.62   24.46
  10   0  -2  647.11   23.60
  -8   0   2   37.30    3.19
   8   0  -2   41.11    3.16
   8   0  -2   41.35    2.71
  -8   0   2   44.26    2.80
  -8   0   2   43.79    3.56
   8   0  -2   44.80    3.04
   6   0  -2 2149.33   74.27
   6   0  -2 2054.68   74.07
   6   0  -2 2109.24   74.05
  -6   0   2 2125.33   73.99
  -6   0   2 2116.78   74.47
  -6   0   2 2097.54   74.55
  -4   0   2 8562.07  298.54
  -4   0   2 8587.11  298.91
  -2   0  -2 2041.96   71.77
  -4   0  -2  548.56   20.60
   4   0   2  583.59   20.41
   4   0   2  552.75   20.61
  -4   0  -2  562.57   20.34
   4   0   2  562.59   21.20
   6   0   2  275.40   11.05
   6   0   2  275.56   10.59
   6   0   2  277.61   11.70
  -6   0  -2  266.56   10.49
  -6   0  -2  261.23   10.95
   8   0   2 1045.79   40.40
   8   0   2 1097.49   39.79
  -8   0  -2 1077.40   38.94
   8   0   2 1123.83   39.15
  -8   0  -2 1074.54   39.71
 -10   0  -2  124.26    5.97
  10   0   2  119.05    6.12
  10   0   2  122.60    6.77
 -10   0  -2  115.26    6.93
  10   0   2  132.62    7.91
  12   0   2   51.64    5.17
 -12   0  -2   52.74    5.28
  12   0   2   64.73    4.59
  12   0   2   66.53    6.73
 -14   0  -2   70.47    6.52
  14   0   2   83.93    8.22
  14   0   2   90.56    7.49
  16   0   2    9.73    3.82
 -16   0  -2   11.73    3.61
  16   0   2   18.70    5.56
 -18   0  -2   51.06    6.77
  18   0   2   43.47    8.16
  18   0   2   51.83    6.86
  20   0   2    7.56    7.11
  20   0   2   -5.02    4.04
 -20   0  -2    1.62    3.45
  21  -1  -2   43.57    8.31
 -21  -1   2   29.57    6.11
  21  -1  -2   43.35    6.93
 -21   1   2   42.28    6.87
  21   1  -2   38.22    7.76
  21   1  -2   25.06    5.60
 -19  -1   2   18.99    4.79
  19  -1  -2    8.77    5.65
  19  -1  -2   15.90    4.70
  19   1  -2   10.36    5.17
  19   1  -2   28.66    5.25
 -19   1   2   13.77    4.60
  17  -1  -2   50.43    6.25
  17  -1  -2   53.66    6.97
 -17  -1   2   40.47    5.55
  17   1  -2   52.15    6.10
  17   1  -2   39.51    6.15
 -17   1   2   49.98    6.01
  15  -1  -2    8.08    3.15
 -15  -1   2    6.62    3.12
  15  -1  -2   10.18    3.19
  15  -1  -2    9.21    3.58
  15   1  -2   11.20    3.36
 -15   1   2    8.84    3.21
  15   1  -2   11.03    3.70
 -13  -1   2  110.25    6.11
  13  -1  -2  106.70    6.13
  13  -1  -2  103.67    6.96
  13   1  -2   92.27    6.76
 -13   1   2  102.15    6.80
 -13   1   2  105.23    6.60
  13   1  -2   94.50    6.53
 -11  -1   2  199.97    8.69
  11  -1  -2  200.80    8.84
 -11  -1   2  181.87    9.21
  11  -1  -2  189.45    9.42
  11  -1  -2  203.44    9.25
  11   1  -2  201.50    8.12
 -11   1   2  179.76    9.15
 -11   1   2  188.35    9.36
  11   1  -2  201.05    9.40
  11   1  -2  192.64    9.33
  -9  -1   2   77.79    4.46
  -9  -1   2   91.85    4.97
   9  -1  -2   76.96    4.74
   9  -1  -2   84.52    4.59
   9  -1  -2   77.28    4.94
   9   1  -2   79.62    3.88
  -9   1   2   71.96    4.71
   9   1  -2   74.97    4.63
  -9   1   2   74.34    4.68
   9   1  -2   81.52    4.90
   9   1  -2   73.72    4.03
   7  -1  -2  451.54   17.18
   7  -1  -2  421.86   17.00
  -7  -1   2  452.89   16.85
   7  -1  -2  466.64   16.91
  -7   1   2  456.73   17.03
   7   1  -2  439.51   16.74
   7   1  -2  438.85   17.09
   7   1  -2  455.13   16.26
   7   1  -2  443.48   16.45
  -7   1   2  442.97   17.23
  -5  -1   2  671.87   24.05
   5  -1  -2  665.48   24.25
   5  -1  -2  651.68   23.99
   5  -1  -2  669.90   24.02
  -5   1   2  660.24   23.99
   5   1  -2  658.03   24.08
   5   1  -2  648.05   23.69
  -5   1   2  671.23   24.22
   3  -1  -2 6392.73  220.04
  -3  -1   2 6506.46  220.13
   3  -1  -2 6437.48  220.00
   3  -1  -2 6361.81  220.22
  -3  -1   2 6140.30  220.06
   3   1  -2 6020.86  219.80
  -3   1   2 6359.33  220.11
  -1  -1  -2   13.63    1.49
   1  -1   2   16.70    1.51
  -1   1  -2   11.65    1.39
   1   1   2   15.75    1.53
   3  -1   2   86.70    4.72
   3  -1   2   91.84    4.26
  -3  -1  -2   86.69    4.19
  -3  -1  -2   87.14    4.01
  -3   1  -2   87.21    4.21
   3   1   2   91.66    4.30
   3   1   2   96.93    4.78
  -3   1  -2   78.08    3.96
   5  -1   2 2949.06  105.51
  -5  -1  -2 3009.12  104.73
  -5  -1  -2 2873.53  104.58
   5  -1   2 3057.57  104.74
  -5   1  -2 2967.29  104.76
   5   1   2 2973.63  104.89
   5   1   2 3095.48  104.34
   5   1   2 2918.87  105.36
  -5   1  -2 2960.62  104.82
   7  -1   2  228.68   10.02
  -7  -1  -2  238.64   10.04
   7  -1   2  234.71    9.92
  -7  -1  -2  236.75    9.80
   7  -1   2  229.09   10.92
   7   1   2  247.39    9.24
  -7   1  -2  232.07    9.10
   7   1   2  237.03   10.84
   7   1   2  246.13   10.27
  -7   1  -2  230.56   10.09
  -9  -1  -2   25.29    3.24
   9  -1   2   27.89    3.10
  -9  -1  -2   34.70    3.21
   9  -1   2   22.86    3.02
   9  -1   2   29.46    4.14
   9   1   2   34.79    2.67
  -9   1  -2   25.99    3.15
   9   1   2   35.41    4.41
   9   1   2   33.24    3.65
  -9   1  -2   34.09    2.59
 -11  -1  -2   23.31    3.00
  11  -1   2   20.80    2.94
 -11  -1  -2   15.20    2.95
  11  -1   2   18.09    3.83
  11  -1   2   17.49    3.22
  11   1   2   17.74    3.18
  11   1   2   10.19    3.25
 -11   1  -2   11.86    2.79
 -13  -1  -2   29.44    4.21
  13  -1   2   45.16    4.53
  13  -1   2   34.09    5.47
  13  -1   2   36.83    4.73
  13   1   2   28.91    5.05
  13   1   2   31.95    4.44
 -13   1  -2   29.01    4.13
  15  -1   2   40.60    5.66
  15  -1   2   56.82    7.59
 -15  -1  -2   39.84    5.14
  15   1   2   47.52    5.73
  15   1   2   49.10    7.22
 -15   1  -2   42.61    5.43
  17  -1   2    5.19    5.12
  17  -1   2    9.27    3.80
 -17  -1  -2    4.24    3.36
  17   1   2    0.56    5.17
  17   1   2    0.94    3.50
 -17   1  -2    7.97    3.55
 -19  -1  -2   30.41    5.25
  19  -1   2   31.29    6.05
  19  -1   2   27.30    7.81
  19   1   2   24.56    5.92
  19   1   2   16.88    7.10
 -19   1  -2   28.73    5.53
 -20  -2   2    3.28    3.59
  20  -2  -2   -1.14    5.53
  20  -2  -2    1.44    4.06
 -20   2   2    1.80    4.30
  20   2  -2   -5.02    3.00
  20   2  -2   -1.84    5.14
  18  -2  -2   -1.24    4.12
  18  -2  -2    0.68    3.43
 -18  -2   2    1.55    3.13
 -18   2   2    2.85    3.59
  18   2  -2    7.24    3.66
  18   2  -2    4.68    4.57
  16  -2  -2   54.30    7.03
 -16  -2   2   50.16    5.82
  16  -2  -2   61.70    5.94
  16   2  -2   52.63    6.54
  16   2  -2   44.65    5.50
 -16   2   2   53.64    6.11
 -16   2   2   48.97    6.01
  14  -2  -2   45.04    4.72
  14  -2  -2   42.52    5.51
 -14  -2   2   54.10    4.94
 -14  -2   2   45.09    4.96
  14   2  -2   49.32    5.18
 -14   2   2   51.22    5.54
 -14   2   2   43.50    4.77
  14   2  -2   38.81    5.40
  12  -2  -2   13.64    3.37
 -12  -2   2   20.23    2.94
  12  -2  -2   12.40    2.75
 -12  -2   2   19.02    3.27
  12   2  -2   16.10    3.11
 -12   2   2   14.32    3.05
 -12   2   2   16.22    2.90
  12   2  -2   15.97    3.31
  10  -2  -2   13.98    2.76
 -10  -2   2   25.41    3.06
 -10  -2   2   15.03    2.77
  10  -2  -2   16.09    2.62
  10  -2  -2   12.54    2.95
 -10   2   2   16.82    2.79
 -10   2   2   17.10    2.74
  10   2  -2   21.41    3.10
  10   2  -2   21.04    2.96
  -8  -2   2   11.19    2.21
   8  -2  -2   16.05    2.41
  -8  -2   2   13.58    2.41
   8  -2  -2   14.83    2.69
   8  -2  -2   15.28    2.53
  -8   2   2   14.69    2.26
  -8   2   2   13.38    2.34
   8   2  -2   18.35    2.66
   8   2  -2   17.43    2.44
  -6  -2   2   11.09    1.86
  -6  -2   2   14.61    2.14
   6  -2  -2   11.80    1.89
   6  -2  -2    7.14    2.07
   6  -2  -2    7.79    1.81
  -6   2   2   13.93    2.01
  -6   2   2   10.53    1.83
   6   2  -2    9.42    1.89
   6   2  -2    8.92    1.62
   4  -2  -2  453.86   17.29
   4  -2  -2  441.90   17.62
  -4  -2   2  465.27   17.45
  -4  -2   2  463.34   17.36
  -4   2   2  466.77   17.05
   4   2  -2  466.89   17.32
   4   2  -2  470.91   17.07
  -4   2   2  473.24   17.38
   2  -2  -2 1341.93   47.27
   2  -2  -2 1294.67   46.89
   2  -2  -2 1360.25   46.56
  -2  -2   2 1295.13   46.89
   2  -2  -2 1313.33   46.73
   2   2  -2 1320.83   46.83
  -2   2   2 1336.92   46.85
   2   2  -2 1288.98   47.05
   0  -2  -2 1708.43   61.90
   0  -2  -2 1738.35   61.25
   0  -2   2 1761.90   61.32
   0  -2  -2 1780.72   61.42
   0  -2   2 1786.32   61.34
   0  -2  -2 1709.52   61.09
   0   2  -2 1724.18   61.92
   0   2   2 1741.43   61.39
   0   2  -2 1710.81   61.43
   2  -2   2   91.33    4.65
   2  -2   2   97.60    5.50
  -2  -2  -2   99.28    4.27
   2  -2   2   94.50    4.48
   2   2   2   95.46    4.61
  -2   2  -2  100.20    4.73
   2   2   2   85.77    5.32
  -2   2  -2  104.84    5.67
  -2   2  -2   91.43    4.18
  -4  -2  -2  480.12   17.99
  -4  -2  -2  468.78   17.67
   4  -2   2  477.74   17.95
   4  -2   2  483.41   18.80
   4   2   2  482.07   17.97
   4   2   2  471.66   18.52
  -4   2  -2  464.99   17.94
  -4   2  -2  463.95   17.62
   6  -2   2 1208.16   44.59
  -6  -2  -2 1225.02   44.47
  -6  -2  -2 1235.70   44.63
   6  -2   2 1273.53   45.63
   6   2   2 1234.09   45.34
  -6   2  -2 1224.27   44.68
  -6   2  -2 1253.41   44.48
   6   2   2 1217.36   44.72
  -8  -2  -2   15.82    2.46
  -8  -2  -2   21.21    2.81
   8  -2   2   23.02    3.92
   8  -2   2   14.03    2.52
   8   2   2   16.33    3.27
   8   2   2   17.63    2.57
   8   2   2   20.81    2.03
  -8   2  -2   15.17    2.49
  -8   2  -2   18.78    2.85
  10  -2   2   66.76    5.06
  10  -2   2   78.31    6.84
 -10  -2  -2   75.11    4.96
  10  -2   2   69.25    5.32
 -10   2  -2   64.55    5.39
  10   2   2   68.78    6.25
 -10   2  -2   67.38    5.20
  10   2   2   66.34    5.53
 -12  -2  -2   37.30    4.31
 -12  -2  -2   36.90    4.18
  12  -2   2   27.59    4.98
  12  -2   2   28.41    4.02
  12  -2   2   27.33    3.96
  12   2   2   32.38    4.34
 -12   2  -2   29.75    4.07
  12   2   2   30.13    5.22
  14  -2   2   31.29    6.04
  14  -2   2   33.00    4.62
  14  -2   2   22.92    4.09
 -14  -2  -2   25.20    4.16
 -14  -2  -2   34.37    4.71
  14   2   2   27.66    5.65
 -14   2  -2   26.51    4.41
  14   2   2   22.97    4.45
  16  -2   2    3.82    3.58
  16  -2   2    2.36    3.80
  16  -2   2    1.24    4.97
 -16  -2  -2    6.15    3.43
 -16   2  -2    4.72    3.43
  16   2   2    7.07    3.60
  16   2   2    4.84    4.82
  18  -2   2    5.21    3.90
 -18  -2  -2    0.05    3.28
  18  -2   2    9.37    6.34
  18   2   2   -1.64    5.30
  18   2   2    8.37    4.30
 -18   2  -2   -5.72    3.13
 -20  -2  -2   -2.99    3.70
  20  -2   2   -0.26    4.52
  20  -2   2   -2.31    6.78
 -20   2  -2    2.28    4.00
  20   2   2   -1.38    4.85
  20   2   2   -5.60    6.03
  21  -3  -2    3.40    4.88
  21  -3  -2    1.55    6.17
 -21  -3   2    3.19    3.62
 -21   3   2    2.92    4.35
  21   3  -2    7.18    6.33
  21   3  -2   -0.02    3.86
  19  -3  -2   83.99    8.51
  19  -3  -2   94.60   10.50
 -19  -3   2   73.26    7.58
 -19   3   2   71.38    7.76
  19   3  -2   76.77    7.99
  19   3  -2   68.02    9.02
  17  -3  -2   24.73    6.42
 -17  -3   2   34.56    5.18
  17  -3  -2   41.19    5.44
 -17   3   2   26.64    4.96
 -17   3   2   33.88    5.37
  17   3  -2   26.73    4.99
  17   3  -2   26.01    5.87
 -15  -3   2  317.36   15.01
 -15  -3   2  340.63   14.70
  15  -3  -2  344.62   15.00
  15  -3  -2  313.21   16.13
  15   3  -2  295.53   15.60
 -15   3   2  316.54   15.19
  15   3  -2  318.10   15.27
 -15   3   2  302.06   14.79
 -13  -3   2  172.05    9.64
  13  -3  -2  195.26   10.91
  13  -3  -2  168.15    9.41
 -13  -3   2  196.64    9.70
  13   3  -2  191.94   10.35
 -13   3   2  189.51    9.98
 -13   3   2  175.54    9.51
  13   3  -2  185.24    9.89
  11  -3  -2   19.25    3.62
 -11  -3   2   21.38    3.35
  11  -3  -2   28.08    4.18
 -11  -3   2   17.81    3.19
  11  -3  -2   19.28    3.25
  11   3  -2   18.28    3.23
  11   3  -2   19.93    3.71
 -11   3   2   18.15    3.24
 -11   3   2   19.02    3.12
  -9  -3   2  249.74   11.07
   9  -3  -2  240.80   11.65
  -9  -3   2  263.50   11.19
   9  -3  -2  239.72   11.36
   9  -3  -2  225.65   10.82
  -9   3   2  256.65   11.15
   9   3  -2  253.23   11.37
  -9   3   2  247.56   10.78
   9   3  -2  241.16   10.86
   7  -3  -2  312.96   12.93
   7  -3  -2  309.38   13.51
  -7  -3   2  302.79   13.01
  -7  -3   2  310.67   12.88
  -7   3   2  318.02   12.95
   7   3  -2  313.66   12.70
  -7   3   2  319.76   12.73
   7   3  -2  312.25   13.16
  -5  -3   2   46.84    3.36
   5  -3  -2   53.18    4.55
   5  -3  -2   46.25    3.67
  -5  -3   2   49.81    3.69
   5  -3  -2   48.89    3.46
   5   3  -2   43.47    3.89
  -5   3   2   46.73    3.40
  -5   3   2   43.12    3.13
   5   3  -2   40.29    3.13
   3  -3  -2  208.72    7.89
  -3  -3   2  184.71    8.38
  -3  -3   2  191.80    7.64
   3  -3  -2  201.43    9.13
   3  -3  -2  196.92    8.25
   3  -3  -2  186.54    8.47
   3   3  -2  198.93    8.37
   3   3  -2  191.83    8.86
   3   3  -2  197.96    7.91
  -3   3   2  193.67    8.24
  -3   3   2  191.67    7.93
  -1  -3   2  801.68   29.43
   1  -3  -2  772.29   29.48
   1  -3  -2  834.84   29.36
  -1  -3   2  782.17   29.09
   1  -3  -2  808.38   29.19
   1  -3  -2  797.99   30.18
  -1   3   2  808.02   29.01
   1   3  -2  830.21   29.53
   1   3  -2  848.67   28.94
  -1   3   2  816.42   29.46
   1   3  -2  786.49   30.15
  -1  -3  -2 1454.78   51.66
  -1  -3  -2 1412.59   52.27
   1  -3   2 1432.63   53.07
  -1  -3  -2 1461.44   51.83
   1  -3   2 1502.21   52.17
  -1  -3  -2 1450.26   53.05
   1  -3   2 1484.50   51.98
  -1   3  -2 1500.88   51.69
  -1   3  -2 1427.45   52.25
   1   3   2 1514.66   52.29
   1   3   2 1480.43   51.81
   1   3   2 1444.68   53.05
  -1   3  -2 1449.17   53.15
  -3  -3  -2 1347.89   48.96
   3  -3   2 1365.60   48.90
   3  -3   2 1371.19   48.17
  -3  -3  -2 1377.55   48.49
   3  -3   2 1371.42   49.82
  -3   3  -2 1337.75   49.67
  -3   3  -2 1374.48   48.88
   3   3   2 1333.74   48.81
  -3   3  -2 1356.94   48.36
   5  -3   2  448.21   17.24
   5  -3   2  450.35   18.24
   5  -3   2  440.83   15.92
  -5  -3  -2  442.41   16.82
  -5  -3  -2  419.61   17.18
   5   3   2  429.32   17.12
  -5   3  -2  433.05   18.74
   5   3   2  431.09   17.95
  -5   3  -2  431.61   17.07
  -5   3  -2  432.14   16.66
   7  -3   2  406.81   16.55
   7  -3   2  411.61   17.64
  -7  -3  -2  393.39   16.14
  -7  -3  -2  402.24   16.48
   7   3   2  415.27   16.53
   7   3   2  409.69   17.37
  -7   3  -2  407.32   16.10
  -7   3  -2  411.03   16.47
  -9  -3  -2  105.21    6.10
  -9  -3  -2  111.25    6.38
   9  -3   2  113.63    7.80
   9  -3   2  104.10    6.34
  -9   3  -2   91.39    6.19
   9   3   2  102.68    7.49
  -9   3  -2  105.44    6.10
   9   3   2  100.70    6.50
 -11  -3  -2   39.76    4.50
  11  -3   2   43.93    6.04
  11  -3   2   38.98    4.54
 -11  -3  -2   43.60    4.56
  11   3   2   35.31    4.34
 -11   3  -2   35.64    4.26
 -11   3  -2   39.70    4.37
  11   3   2   38.79    5.72
  13  -3   2   21.49    5.06
  13  -3   2   12.71    3.35
 -13  -3  -2   13.79    3.37
 -13  -3  -2    9.56    3.66
  13  -3   2   14.96    3.71
  13   3   2   10.99    3.33
  13   3   2   14.72    4.98
 -13   3  -2    6.12    3.03
  15  -3   2  109.97    8.53
 -15  -3  -2  111.27    8.32
  15  -3   2  115.63   10.89
  15  -3   2   98.34    8.43
 -15  -3  -2  106.45    7.69
  15   3   2  111.48   10.35
  15   3   2  115.57    8.44
 -15   3  -2   91.17    8.27
 -17  -3  -2    0.16    3.01
  17  -3   2   -3.39    3.51
  17  -3   2    0.19    3.56
  17  -3   2   -0.44    5.47
  17   3   2   -0.95    5.22
  17   3   2    7.64    3.86
 -17   3  -2   -0.39    3.58
  19  -3   2    0.54    6.31
  19  -3   2    2.89    4.40
 -19  -3  -2    1.13    3.64
  19   3   2    4.19    4.12
 -19   3  -2   -3.73    3.96
  19   3   2    1.65    6.65
  20  -4  -2    6.09    5.33
  20  -4  -2    0.55    4.08
 -20  -4   2    5.54    3.83
  20  -4  -2    3.54    6.63
  20   4  -2    6.61    6.10
 -20   4   2    1.03    4.22
  20   4  -2    0.06    4.13
  18  -4  -2   12.07    6.07
 -18  -4   2    3.33    3.51
  18  -4  -2    6.24    4.12
  18   4  -2    9.32    5.67
 -18   4   2   11.96    4.36
  18   4  -2    6.81    3.93
 -18   4   2   14.82    4.41
  16  -4  -2   -0.20    4.45
 -16  -4   2   -0.25    2.89
 -16  -4   2   -0.85    3.17
  16  -4  -2    1.42    3.27
  16   4  -2    2.40    3.37
 -16   4   2    0.31    3.23
  16   4  -2    1.79    4.24
 -16   4   2    2.21    3.29
 -14  -4   2  159.63    9.25
 -14  -4   2  154.07    9.20
  14  -4  -2  153.24   10.88
  14  -4  -2  150.45    9.06
 -14   4   2  164.02    9.47
  14   4  -2  133.94   10.13
 -14   4   2  167.85    9.39
  14   4  -2  159.74    9.42
  12  -4  -2  137.86    9.45
  12  -4  -2  126.48    7.97
 -12  -4   2  132.11    7.97
 -12  -4   2  146.78    8.30
 -12   4   2  135.07    8.12
  12   4  -2  138.93    8.86
 -12   4   2  138.74    7.97
  12   4  -2  123.34    7.93
  10  -4  -2  226.81   11.13
 -10  -4   2  223.35   10.93
  10  -4  -2  226.95   11.71
  10  -4  -2  258.88   12.48
 -10  -4   2  224.95   11.18
 -10   4   2  231.48   10.86
 -10   4   2  237.14   11.13
  10   4  -2  241.19   10.97
  10   4  -2  242.34   11.92
  -8  -4   2   95.76    5.89
   8  -4  -2  100.73    6.53
   8  -4  -2   91.58    5.93
  -8  -4   2  107.23    6.34
   8  -4  -2  101.36    6.92
  -8   4   2   96.43    5.82
  -8   4   2   96.00    5.68
   8   4  -2   90.37    5.59
   8   4  -2   96.53    6.57
   6  -4  -2  227.18    8.66
  -6  -4   2  223.04    9.88
   6  -4  -2  209.35    9.84
   6  -4  -2  222.85   10.76
   6  -4  -2  220.99   10.32
  -6  -4   2  206.86   10.01
  -6   4   2  222.98    9.57
  -6   4   2  215.16    9.76
   6   4  -2  209.76   10.49
   6   4  -2  233.19    9.63
   4  -4  -2   12.89    3.23
  -4  -4   2   13.64    2.45
  -4  -4   2   19.74    1.91
   4  -4  -2   18.45    2.69
   4  -4  -2   14.94    2.02
   4  -4  -2   18.08    2.80
   4   4  -2   20.84    3.34
   4   4  -2   15.81    2.41
   4   4  -2   20.65    2.27
  -4   4   2   18.90    2.37
  -4   4   2   19.97    2.51
   2  -4  -2  119.52    6.00
   2  -4  -2  135.79    6.11
   2  -4  -2  125.16    6.36
  -2  -4   2  126.20    5.84
  -2  -4   2  122.86    6.30
   2  -4  -2  121.27    7.20
  -2   4   2  132.69    5.95
   2   4  -2  132.88    5.80
   2   4  -2  130.82    6.31
  -2   4   2  120.00    7.62
  -2   4   2  123.70    6.18
   2   4  -2  118.35    7.16
   0  -4  -2  756.55   27.92
   0  -4   2  767.95   28.03
   0  -4  -2  763.82   29.22
   0  -4  -2  754.19   27.60
   0  -4  -2  748.01   28.09
   0  -4   2  774.70   27.87
   0  -4   2  725.46   29.50
   0   4   2  756.18   27.62
   0   4  -2  778.96   27.53
   0   4   2  768.18   29.24
   0   4  -2  736.61   28.10
   0   4   2  757.74   28.05
   0   4  -2  749.85   29.24
  -2  -4  -2  464.57   17.41
  -2  -4  -2  464.37   18.24
  -2  -4  -2  453.31   17.14
  -2  -4  -2  477.61   19.27
   2  -4   2  467.27   19.21
   2  -4   2  442.36   17.97
   2  -4   2  475.64   17.61
  -2   4  -2  467.24   18.12
   2   4   2  466.09   17.60
  -2   4  -2  458.33   19.27
  -2   4  -2  471.95   17.46
   2   4   2  459.48   18.04
   2   4   2  463.58   19.17
   4  -4   2  334.75   12.23
  -4  -4  -2  298.20   13.17
  -4  -4  -2  318.14   11.73
   4  -4   2  316.57   14.48
  -4  -4  -2  315.04   12.69
  -4  -4  -2  313.25   11.91
   4  -4   2  297.22   13.10
  -4   4  -2  323.34   14.30
  -4   4  -2  307.09   13.09
   4   4   2  320.07   13.08
   4   4   2  305.10   14.23
  -4   4  -2  313.24   12.53
  -6  -4  -2  368.40   15.76
   6  -4   2  376.16   16.99
   6  -4   2  391.92   14.18
  -6  -4  -2  385.31   15.30
   6  -4   2  386.57   15.82
   6   4   2  390.09   16.86
  -6   4  -2  389.05   17.22
  -6   4  -2  362.27   15.10
   6   4   2  366.46   15.60
  -6   4  -2  377.13   15.59
   8  -4   2  354.82   16.22
  -8  -4  -2  344.16   14.40
  -8  -4  -2  326.56   14.83
   8  -4   2  340.32   14.93
   8   4   2  334.10   14.72
  -8   4  -2  336.25   14.31
   8   4   2  336.12   15.91
  -8   4  -2  366.03   14.89
 -10  -4  -2   22.78    3.75
  10  -4   2   14.84    3.42
 -10  -4  -2   10.35    2.82
  10  -4   2   11.58    4.14
 -10   4  -2   14.47    3.37
 -10   4  -2   18.33    3.23
  10   4   2   11.35    2.95
  10   4   2   10.66    4.09
  12  -4   2  143.84   10.68
 -12  -4  -2  162.12    8.94
  12  -4   2  140.02    8.65
 -12  -4  -2  137.56    8.38
 -12   4  -2  144.91    9.00
  12   4   2  139.48   10.41
 -12   4  -2  142.55    8.48
  12   4   2  140.42    8.82
  14  -4   2   -2.53    2.89
 -14  -4  -2   -0.38    2.54
  14  -4   2    1.08    4.97
 -14  -4  -2   -3.82    2.97
  14   4   2   -3.31    4.30
 -14   4  -2    0.87    2.90
  14   4   2    2.77    3.27
 -14   4  -2    1.03    3.24
  16  -4   2   17.52    4.75
 -16  -4  -2   10.60    3.96
  16  -4   2   21.44    4.97
 -16  -4  -2   17.49    4.92
  16  -4   2   30.21    7.55
 -16   4  -2   12.41    4.43
  16   4   2   16.84    6.58
  16   4   2   22.63    5.04
 -18  -4  -2   19.52    4.77
  18  -4   2   24.56    5.91
  18  -4   2   32.41    6.14
  18  -4   2   24.28    7.99
 -18   4  -2   23.58    5.70
  18   4   2   28.51    8.34
  18   4   2   31.32    5.75
 -19  -5   2    5.86    4.29
  19  -5  -2   20.66    5.21
  19  -5  -2   20.15    7.41
 -19   5   2   15.34    4.92
  19   5  -2    7.05    6.43
 -19   5   2   15.68    5.28
  19   5  -2   30.53    6.14
 -17  -5   2    4.64    4.27
  17  -5  -2    8.43    4.29
 -17  -5   2    8.34    3.96
  17  -5  -2    7.61    5.75
 -17   5   2    7.21    4.00
 -17   5   2    5.96    3.79
  17   5  -2    1.84    5.44
  17   5  -2    4.04    3.85
 -15  -5   2   82.03    7.80
 -15  -5   2   66.80    7.17
  15  -5  -2   73.05    9.06
  15  -5  -2   74.83    7.44
  15   5  -2   92.68    8.14
 -15   5   2   96.99    8.21
 -15   5   2   74.94    7.10
  15   5  -2   71.14    8.32
 -13  -5   2   42.71    5.57
 -13  -5   2   41.21    5.20
  13  -5  -2   40.31    6.69
  13  -5  -2   32.01    4.84
  13   5  -2   43.76    5.31
 -13   5   2   37.72    4.90
  13   5  -2   52.86    6.69
 -13   5   2   41.14    5.06
  11  -5  -2   82.19    8.04
  11  -5  -2   54.21    5.76
 -11  -5   2   68.92    6.43
 -11  -5   2   67.52    6.25
  11   5  -2   78.26    7.50
  11   5  -2   78.65    6.40
 -11   5   2   71.68    6.48
 -11   5   2   81.81    6.31
   9  -5  -2    5.27    2.88
  -9  -5   2    6.38    2.70
   9  -5  -2    5.33    3.46
  -9  -5   2    5.65    2.50
  -9   5   2    4.75    2.35
   9   5  -2    8.29    3.52
  -9   5   2   11.42    2.72
   9   5  -2    6.98    2.53
  -7  -5   2    2.44    2.39
   7  -5  -2   -2.13    2.58
   7  -5  -2    2.92    2.27
  -7  -5   2    1.32    1.94
   7  -5  -2    2.96    2.40
  -7   5   2    0.54    1.88
   7   5  -2    8.44    3.32
  -7   5   2    2.89    1.98
   7   5  -2    3.38    1.98
   5  -5  -2    6.69    1.79
  -5  -5   2    2.51    2.23
   5  -5  -2    4.40    2.15
   5  -5  -2    4.51    2.29
   5  -5  -2   11.49    3.48
  -5  -5   2    7.05    1.57
  -5   5   2    6.26    2.01
   5   5  -2    4.78    2.20
   5   5  -2    3.89    1.87
  -5   5   2    5.04    2.02
   5   5  -2    3.54    2.83
   3  -5  -2   67.18    4.71
   3  -5  -2   78.89    6.78
   3  -5  -2   70.27    5.02
  -3  -5   2   70.83    4.11
   3  -5  -2   72.37    4.51
  -3  -5   2   53.55    4.86
   3   5  -2   69.30    4.77
   3   5  -2   74.12    6.50
  -3   5   2   87.16    7.33
   3   5  -2   70.68    4.36
  -3   5   2   66.36    4.63
  -3   5   2   83.11    4.73
   1  -5  -2   10.96    2.39
  -1  -5   2   10.84    2.37
   1  -5  -2   12.18    2.38
   1  -5  -2    9.53    3.41
  -1  -5   2   13.61    2.30
  -1  -5   2    9.23    4.53
   1  -5  -2   12.18    2.26
   1   5  -2   10.17    2.46
  -1   5   2   10.25    2.11
  -1   5   2   14.39    4.15
   1   5  -2    7.77    3.36
   1   5  -2   10.53    1.99
  -1   5   2    9.50    2.22
   1  -5   2  355.15   15.50
  -1  -5  -2  350.85   13.52
  -1  -5  -2  334.72   13.76
  -1  -5  -2  336.14   14.30
  -1  -5  -2  350.37   15.74
   1  -5   2  334.58   13.95
   1  -5   2  345.43   13.93
   1   5   2  336.73   14.09
  -1   5  -2  342.79   15.66
  -1   5  -2  332.38   14.26
  -1   5  -2  353.22   13.56
   1   5   2  329.52   13.72
   1   5   2  370.04   15.83
  -3  -5  -2   17.44    4.22
  -3  -5  -2   16.48    2.93
  -3  -5  -2   15.63    2.26
  -3  -5  -2   19.91    2.21
   3  -5   2   12.52    2.79
   3  -5   2   25.08    4.31
   3  -5   2   16.84    2.40
   3   5   2   21.92    2.78
  -3   5  -2   16.08    2.40
  -3   5  -2   14.86    2.87
   3   5   2   14.65    2.84
  -3   5  -2   24.38    4.54
   3   5   2   11.97    3.79
  -5  -5  -2  136.75    7.13
  -5  -5  -2  131.21    7.71
   5  -5   2  139.41    8.97
   5  -5   2  146.45    6.55
   5  -5   2  145.79    7.80
   5   5   2  137.95    9.06
   5   5   2  124.37    7.37
  -5   5  -2  148.35    7.59
  -5   5  -2  148.92    9.79
  -5   5  -2  138.07    6.97
  -7  -5  -2   39.76    4.18
   7  -5   2   50.93    6.19
  -7  -5  -2   51.54    5.00
   7  -5   2   47.44    4.98
   7   5   2   44.98    4.83
  -7   5  -2   44.77    4.26
   7   5   2   49.43    5.99
  -7   5  -2   52.38    4.98
   9  -5   2   25.43    4.25
  -9  -5  -2   23.27    4.23
   9  -5   2   33.31    5.94
  -9  -5  -2   29.74    3.90
   9   5   2   34.17    4.65
  -9   5  -2   21.11    3.69
  -9   5  -2   27.46    4.08
   9   5   2   29.82    5.42
  11  -5   2    4.55    3.18
  11  -5   2    1.77    4.26
 -11  -5  -2   11.21    2.99
 -11  -5  -2    6.44    3.41
  11   5   2   13.39    5.09
 -11   5  -2    9.38    3.58
 -11   5  -2   15.99    3.55
  11   5   2    4.51    3.00
  13  -5   2   38.09    5.43
 -13  -5  -2   39.95    5.24
 -13  -5  -2   37.78    5.71
  13  -5   2   32.89    7.01
  13   5   2   46.70    5.92
 -13   5  -2   40.98    5.18
  13   5   2   29.86    6.64
 -13   5  -2   36.97    5.41
  15  -5   2   36.55    8.18
 -15  -5  -2   41.95    5.84
  15  -5   2   37.65    5.72
 -15  -5  -2   30.89    5.59
 -15   5  -2   35.02    5.73
  15   5   2   30.46    5.28
 -15   5  -2   35.08    5.49
  15   5   2   19.07    6.69
  17  -5   2   11.15    4.72
  17  -5   2    2.47    9.88
 -17  -5  -2    4.87    4.03
  17  -5   2    4.24    6.41
 -17  -5  -2    4.97    5.48
 -17   5  -2    7.82    4.19
  17   5   2    1.20    3.93
  17   5   2    2.31    6.66
 -18  -6   2    0.25    4.66
 -18  -6   2    9.61    4.26
  18  -6  -2    4.48    6.58
  18  -6  -2    9.49    4.73
  18   6  -2    1.63    3.91
  18   6  -2    3.57    6.21
 -18   6   2    2.98    4.46
 -18   6   2    0.14    3.89
 -16  -6   2   -0.96    3.31
  16  -6  -2    1.95    6.13
 -16  -6   2    3.66    4.20
  16  -6  -2   -1.16    3.54
 -16   6   2    1.95    3.59
  16   6  -2   -4.34    3.40
 -16   6   2   -5.15    3.16
  16   6  -2   -0.03    5.58
  14  -6  -2   23.80    5.04
  14  -6  -2   36.65    7.63
 -14  -6   2   30.14    5.38
 -14  -6   2   26.58    4.84
  14   6  -2   24.81    6.18
 -14   6   2   26.28    4.84
 -14   6   2   34.24    5.18
  14   6  -2   27.45    4.95
 -12  -6   2   14.54    3.54
  12  -6  -2    9.24    3.38
 -12  -6   2   12.79    4.15
  12  -6  -2   21.80    6.10
 -12   6   2    8.96    3.17
 -12   6   2   14.68    3.62
  12   6  -2   10.42    4.72
  12   6  -2   20.00    4.36
 -10  -6   2    1.89    2.48
  10  -6  -2    0.70    4.36
 -10  -6   2   -1.37    2.89
  10  -6  -2    2.34    2.66
  10   6  -2    3.25    4.15
 -10   6   2    3.65    2.85
 -10   6   2    1.26    2.60
  10   6  -2    2.04    2.60
   8  -6  -2   69.25    6.36
   8  -6  -2   84.58    8.15
  -8  -6   2   67.38    6.33
   8   6  -2   72.62    6.02
   8   6  -2   81.04    7.88
  -8   6   2   75.98    5.70
  -8   6   2   78.13    6.24
   8   6  -2   86.91    6.84
   6  -6  -2   59.33    6.07
   6  -6  -2   63.63    5.61
   6  -6  -2   76.44    7.81
  -6  -6   2   57.54    5.63
  -6   6   2   63.23    5.49
   6   6  -2   60.96    6.65
   6   6  -2   59.36    5.09
  -6   6   2   59.02    4.99
   6   6  -2   76.25    6.06
   4  -6  -2   28.00    5.13
  -4  -6   2   18.64    2.58
   4  -6  -2   20.11    2.90
   4  -6  -2   18.89    3.38
  -4  -6   2    6.35    2.74
   4  -6  -2   15.82    3.02
   4   6  -2   15.14    2.79
  -4   6   2   19.59    2.95
   4   6  -2   21.73    4.63
  -4   6   2   20.07    3.09
   4   6  -2   19.28    3.16
   2  -6  -2    7.61    2.48
   2  -6  -2    7.24    2.34
   2  -6  -2    8.68    3.80
  -2  -6   2    6.93    2.48
  -2  -6   2    4.37    2.32
   2  -6  -2    8.28    2.57
   2   6  -2    9.97    2.38
   2   6  -2    4.95    3.53
  -2   6   2   11.33    2.73
  -2   6   2    7.20    4.66
   2   6  -2    5.22    2.48
  -2   6   2    7.82    2.33
   0  -6  -2   63.17    5.44
   0  -6  -2   86.37    7.77
   0  -6  -2   71.15    5.06
   0  -6   2   62.32    4.96
   0  -6   2   71.38    5.11
   0  -6  -2   80.73    4.80
   0   6   2   69.78    7.23
   0   6  -2   58.83    4.43
   0   6  -2   75.83    7.70
   0   6  -2   74.24    5.41
   0   6   2   67.42    4.99
   0   6   2   72.37    5.12
   2  -6   2  319.38   16.23
   2  -6   2  349.98   14.47
  -2  -6  -2  340.67   14.81
   2  -6   2  348.27   14.16
  -2  -6  -2  333.19   13.46
   2   6   2  337.68   14.44
  -2   6  -2  331.02   14.54
   2   6   2  343.30   16.22
  -2   6  -2  331.30   13.77
   2   6   2  332.08   14.01
  -4  -6  -2    4.57    2.70
   4  -6   2   10.37    4.15
   4  -6   2   10.81    2.86
   4  -6   2    4.65    2.17
   4   6   2    3.63    2.48
  -4   6  -2    5.67    2.22
  -4   6  -2    7.91    2.71
   4   6   2    0.75    3.36
   4   6   2    9.46    2.49
  -6  -6  -2  125.67    7.92
   6  -6   2  127.50    9.71
   6  -6   2  121.39    7.73
   6   6   2  128.01    7.21
   6   6   2  137.77   10.09
  -6   6  -2  116.13    6.83
  -6   6  -2  110.76    7.36
   6   6   2  123.70    7.69
  -8  -6  -2   11.54    3.46
  -8  -6  -2    9.93    2.97
   8  -6   2    8.88    4.52
   8  -6   2    6.07    3.08
  -8   6  -2    8.63    2.88
   8   6   2    9.79    4.89
   8   6   2    7.93    3.01
  -8   6  -2   10.74    3.54
 -10  -6  -2   18.15    4.29
  10  -6   2   13.87    3.99
  10  -6   2   17.89    6.07
 -10  -6  -2    5.19    2.75
 -10   6  -2   10.38    3.57
 -10   6  -2   16.97    3.73
  10   6   2   13.61    3.80
  10   6   2   12.46    5.49
  12  -6   2   29.42    7.10
 -12  -6  -2   19.48    4.05
 -12  -6  -2   15.80    4.45
  12  -6   2   11.83    3.82
  12   6   2   11.93    6.01
 -12   6  -2   12.39    4.03
  12   6   2   14.00    4.01
 -12   6  -2   15.15    4.25
  14  -6   2   39.19    8.39
  14  -6   2   20.19    4.83
 -14  -6  -2   18.06    4.42
 -14  -6  -2   28.34    5.61
  14   6   2   33.93    7.82
 -14   6  -2   24.11    5.24
  14   6   2   29.98    5.64
 -14   6  -2   16.87    4.68
 -16  -6  -2    3.43    3.74
  16  -6   2    3.94    8.55
 -16  -6  -2    3.32    4.49
  16  -6   2    8.06    4.38
  16   6   2    2.54    7.04
  16   6   2    1.63    4.15
 -16   6  -2    1.16    5.06
 -16   6  -2    0.07    4.03
 -17  -7   2   13.49    4.52
  17  -7  -2   13.24    4.80
  17  -7  -2    0.76    6.83
 -17  -7   2    9.52    5.26
  17   7  -2   10.73    5.16
 -17   7   2   11.20    4.75
  17   7  -2    6.13    7.04
 -17   7   2   -0.20    3.88
 -15  -7   2   26.33    5.19
 -15  -7   2   24.08    5.70
  15  -7  -2   25.82    5.47
  15  -7  -2   33.64    8.29
 -15   7   2   29.34    5.80
  15   7  -2   26.83    5.33
 -15   7   2   22.53    5.24
  15   7  -2   23.89    7.20
 -13  -7   2   39.92    6.33
  13  -7  -2   39.69    5.81
  13  -7  -2   44.20    8.48
 -13  -7   2   33.76    5.55
  13   7  -2   53.33    6.44
 -13   7   2   51.34    6.19
  13   7  -2   40.91    7.80
 -13   7   2   34.29    5.44
  11  -7  -2  -12.77    4.43
 -11  -7   2   -5.01    2.83
  11  -7  -2   -4.39    2.61
  11   7  -2   -6.00    4.42
 -11   7   2   -3.66    3.01
 -11   7   2    0.69    2.80
  11   7  -2    0.82    2.94
  11   7  -2   -4.04    3.13
  -9  -7   2   33.29    5.17
   9  -7  -2   37.44    7.00
   9  -7  -2   26.99    4.68
   9   7  -2   28.15    4.64
  -9   7   2   35.88    4.70
   9   7  -2   34.97    4.91
  -9   7   2   30.03    4.34
   9   7  -2   28.72    6.27
   7  -7  -2   53.29    5.85
   7  -7  -2   83.11    9.30
  -7  -7   2   59.29    6.08
   7   7  -2   62.88    7.83
  -7   7   2   64.31    5.69
  -7   7   2   58.35    5.73
   7   7  -2   67.33    6.07
   7   7  -2   89.08    7.09
   5  -7  -2   11.30    5.33
  -5  -7   2   10.75    3.31
   5  -7  -2   16.20    3.61
   5   7  -2   10.54    3.06
  -5   7   2   21.91    3.66
  -5   7   2   20.98    3.59
   5   7  -2   17.21    3.71
   5   7  -2   20.14    5.34
  -3  -7   2   10.14    2.75
  -3  -7   2   10.45    3.20
   3  -7  -2    7.61    4.87
   3  -7  -2   14.73    3.28
   3  -7  -2   13.67    3.08
   3   7  -2   10.89    3.22
   3   7  -2   19.81    5.38
  -3   7   2   21.68    3.49
  -3   7   2   13.94    2.99
   3   7  -2   11.57    2.84
  -1  -7   2   63.34    5.01
  -1  -7   2   54.29    5.36
   1  -7  -2   50.96    4.78
   1  -7  -2   56.75    5.37
   1   7  -2   67.20    7.78
   1   7  -2   53.26    5.25
  -1   7   2   55.17    5.03
   1   7  -2   47.92    4.58
  -1   7   2   49.20    4.91
  -1  -7  -2  148.20    8.98
   1  -7   2  154.48    8.60
   1  -7   2  169.75    8.82
  -1  -7  -2  167.23    8.17
  -1   7  -2  165.59   11.73
   1   7   2  180.02   12.60
   1   7   2  159.41    8.55
  -1   7  -2  165.25    9.23
   1   7   2  155.34    8.68
  -1   7  -2  161.59    8.26
  -3  -7  -2  244.16   12.27
   3  -7   2  227.64   11.74
   3  -7   2  250.98   11.48
  -3   7  -2  245.48   12.12
   3   7   2  251.49   11.63
  -3   7  -2  243.07   11.35
   3   7   2  275.92   14.81
   3   7   2  254.49   12.05
   5  -7   2   81.24    6.99
  -5  -7  -2   85.62    7.39
   5   7   2   78.41    6.75
   5   7   2   85.05    6.65
  -5   7  -2   78.55    6.27
   5   7   2   89.99    9.46
  -5   7  -2   85.87    6.97
   7  -7   2   48.09    5.82
  -7  -7  -2   47.62    5.75
   7   7   2   42.28    5.24
   7   7   2   43.05    7.36
   7   7   2   58.08    5.66
  -7   7  -2   52.54    5.80
  -7   7  -2   47.79    5.25
   9  -7   2    3.15    3.43
  -9  -7  -2    8.97    3.97
  -9   7  -2    9.39    3.61
   9   7   2   -0.26    3.10
   9   7   2    1.78    5.37
   9   7   2    4.14    3.42
  11  -7   2    1.68    3.26
 -11  -7  -2   -0.15    2.63
 -11  -7  -2   -3.36    3.33
  11   7   2    2.48    6.02
 -11   7  -2    1.37    3.46
  11   7   2   -1.63    3.33
 -13  -7  -2   -0.26    3.05
  13  -7   2    4.40    3.75
 -13  -7  -2   -5.48    3.75
  13   7   2   -6.27    5.70
  13   7   2    0.40    3.93
 -13   7  -2   -2.64    3.66
 -15  -7  -2    8.54    5.11
  15  -7   2    2.43    4.09
 -15  -7  -2    1.79    3.67
  15   7   2    4.61    4.65
 -15   7  -2   13.11    4.99
  15   7   2    2.00    7.34
  14  -8  -2    6.91    8.34
 -14  -8   2    6.22    4.86
  14  -8  -2    0.28    3.98
  14   8  -2    7.71    7.43
  14   8  -2    0.79    4.68
  14   8  -2   14.01    5.44
 -14   8   2   12.96    4.66
 -14   8   2    9.79    4.47
  12  -8  -2   13.54    5.19
 -12  -8   2   17.07    5.00
  12  -8  -2   32.02    8.99
 -12   8   2   25.01    5.02
  12   8  -2   15.21    5.00
 -12   8   2   19.10    4.67
  12   8  -2   14.78    4.78
  12   8  -2    5.79    6.53
 -10  -8   2   52.12    7.01
  10  -8  -2   51.24    9.53
  10  -8  -2   34.85    5.94
  10   8  -2   47.16    8.85
 -10   8   2   49.50    5.90
 -10   8   2   55.56    6.14
  10   8  -2   37.42    6.08
  10   8  -2   53.39    6.34
  -8  -8   2   -5.40    2.85
   8  -8  -2    9.08    3.90
   8  -8  -2    0.56    6.24
  -8   8   2   -0.54    2.58
  -8   8   2    5.63    3.32
   8   8  -2   -1.97    3.31
   8   8  -2    6.32    5.43
   8   8  -2   -0.63    3.28
   6  -8  -2   13.45    3.77
  -6  -8   2    7.12    3.58
   6   8  -2   15.16    3.91
   6   8  -2   15.73    7.65
   6   8  -2    9.85    3.68
  -6   8   2    6.68    3.28
  -6   8   2   13.24    3.60
   4  -8  -2   43.77    5.34
  -4  -8   2   47.05    5.66
  -4   8   2   63.03    5.84
  -4   8   2   49.56    5.44
   4   8  -2   58.84    5.90
   4   8  -2   50.53    5.89
   4   8  -2   66.64    8.86
   2  -8  -2   49.82    5.16
   2  -8  -2   54.02    5.63
  -2  -8   2   47.77    5.64
   2   8  -2   52.56    8.06
  -2   8   2   51.26    5.30
   2   8  -2   43.22    5.41
  -2   8   2   43.62    5.35
   0  -8   2    0.17    2.92
   0  -8  -2    5.15    2.84
   0  -8   2    2.54    2.71
   0  -8  -2    0.71    2.49
   0   8   2    5.82    3.01
   0   8  -2   -1.39    2.96
   0   8   2    3.52    3.01
  -2  -8  -2   14.47    3.63
   2  -8   2   16.92    3.82
   2  -8   2   15.00    3.76
   2   8   2   17.09    3.65
   2   8   2   12.20    3.61
  -2   8  -2   12.58    3.79
  -4  -8  -2   11.48    3.84
   4  -8   2    3.93    3.54
   4   8   2    5.30    3.42
  -4   8  -2   10.22    3.86
   4   8   2   12.32    3.61
   6  -8   2   44.58    5.97
  -6  -8  -2   54.86    6.43
   6   8   2   61.27    9.25
   6   8   2   63.25    6.36
  -6   8  -2   47.25    5.95
   6   8   2   50.28    5.93
  -8  -8  -2   30.31    5.22
   8  -8   2   31.79    5.54
  -8   8  -2   40.42    5.58
   8   8   2   49.73    6.06
   8   8   2   33.79    5.49
   8   8   2   31.12    8.36
 -10  -8  -2   83.09    8.66
  10  -8   2   83.44    8.45
  10   8   2  102.13   12.33
 -10   8  -2   95.92    8.55
  10   8   2   89.04    8.63
  10   8   2   88.63    8.23
 -12  -8  -2    1.07    4.55
  12  -8   2   -0.23    3.64
 -12   8  -2    0.23    4.17
  12   8   2   -3.79    4.08
  12   8   2   -3.88    3.76
  12   8   2   -1.45    7.36
 -14  -8  -2   -0.32    4.28
  14  -8   2    4.51    4.06
 -14  -8  -2    2.11    5.12
  14   8   2    6.32    9.02
  14   8   2    5.38    4.31
 -14   8  -2   -0.35    4.43
  13  -9  -2    2.82    4.44
 -13  -9   2   -5.54    4.73
  13   9  -2   10.28    8.20
  13   9  -2    8.52    5.53
 -13   9   2   -1.88    4.90
 -11  -9   2    1.92    4.25
  11  -9  -2    2.03    4.34
 -11   9   2    1.68    4.76
  11   9  -2    3.22    7.21
  11   9  -2   -1.96    4.77
 -11   9   2    2.22    4.28
  -9  -9   2   21.94    5.38
   9  -9  -2   27.98    5.74
   9   9  -2   24.99    5.71
   9   9  -2   24.29    7.79
  -9   9   2   22.77    5.10
  -9   9   2   28.20    5.60
  -7  -9   2   31.78    5.44
   7  -9  -2   22.13    5.14
   7   9  -2   30.25    8.32
  -7   9   2   37.58    5.55
   7   9  -2   18.32    5.01
  -7   9   2   35.44    5.35
  -5  -9   2   72.92    7.56
   5  -9  -2   60.59    6.83
   5   9  -2   68.37   10.00
  -5   9   2   68.69    6.91
  -5   9   2   67.43    6.91
   5   9  -2   79.01    7.76
   3  -9  -2   -0.05    3.45
  -3  -9   2   -1.29    2.97
   3   9  -2   -0.75    3.37
  -3   9   2    1.75    3.57
  -3   9   2    3.56    3.14
   1  -9  -2   -2.11    2.78
  -1  -9   2    2.10    3.03
   1  -9  -2    0.62    3.47
   1   9  -2    0.84    3.49
  -1   9   2    3.38    3.68
  -1   9   2    4.32    3.37
  -1  -9  -2   59.17    6.83
   1  -9   2   54.96    6.11
   1  -9   2   60.54    6.45
   1   9   2   51.68    6.10
  -1   9  -2   45.91    6.05
   1   9   2   58.46    6.46
   3  -9   2   85.72    7.47
  -3  -9  -2   77.68    7.65
  -3   9  -2   73.26    7.43
   3   9   2   87.80    7.58
   3   9   2   82.64    7.48
  -5  -9  -2    4.02    3.41
   5  -9   2    5.56    4.27
   5   9   2    1.80    4.45
   5   9   2    0.40    3.46
  -5   9  -2    1.99    3.73
   7  -9   2    5.78    4.39
  -7  -9  -2    1.59    3.82
   7   9   2   -2.54    5.01
   7   9   2    3.21    3.56
  -7   9  -2    6.32    4.07
   9  -9   2   54.72    7.54
  -9  -9  -2   51.26    7.12
   9   9   2   51.74    6.91
  -9   9  -2   45.21    6.48
 -11  -9  -2   19.33    6.18
  11  -9   2   24.04    6.28
 -11   9  -2   22.38    5.59
  11   9   2   31.90    6.73
  10 -10  -2   -0.53    4.69
 -10 -10   2   -2.44    3.60
  10  10  -2   -0.58    5.16
  10  10  -2   -4.73    9.40
   8 -10  -2    3.89    4.87
  -8 -10   2   11.52    4.91
   8  10  -2    4.97    5.07
  -6 -10   2    1.93    4.12
   6 -10  -2    1.73    4.10
   6  10  -2    0.52    4.80
   4 -10  -2   28.91    5.43
  -4 -10   2   25.64    5.51
   4  10  -2   33.47    6.13
  -2 -10   2   18.02    4.94
   2  10  -2   16.82    4.93
  -2  10   2   20.14    8.36
   0 -10   2   27.91    5.77
   0 -10  -2   35.15    5.71
   0  10  -2   29.79    5.69
   0  10   2   39.74    6.29
  -2 -10  -2    7.29    4.17
   2 -10   2   19.29    4.96
  -2  10  -2   10.77    4.95
   2  10   2   14.59    4.79
  -4 -10  -2   -2.95    3.64
   4 -10   2    0.84    3.84
   4  10   2    1.83    4.06
  -4  10  -2   -3.97    3.79
  -6 -10  -2    2.78    4.21
   6 -10   2    2.73    4.63
  -6  10  -2    1.10    4.73
   6  10   2    6.56    4.70
  -8 -10  -2   14.39    4.96
   8 -10   2   21.54    5.97
  -8  10  -2   19.39    5.55
   8  10   2   21.49    5.72
   5 -11  -2   14.45    5.64
  -5 -11   2   14.72    5.54
   5  11  -2    5.93    5.55
  -3 -11   2   12.53    4.99
   3  11  -2   10.74    6.02
  -1 -11   2   -1.32    5.26
   1  11  -2   -3.76    5.11
  -1 -11  -2    0.12    4.55
  -1  11  -2   -1.31    4.85
   3 -11   2    3.84    8.77
  -3 -11  -2    1.96    4.28
  -3  11  -2   -3.59    4.94
 -22   0   3   -6.63    4.02
  22   0  -3   -0.94    6.18
  22   0  -3   -0.12    4.64
  20   0  -3   -4.21    3.20
  20   0  -3    3.00    4.77
 -20   0   3    3.59    4.07
  18   0  -3   -1.43    3.62
  18   0  -3    5.24    3.31
 -18   0   3    3.32    3.22
  16   0  -3    1.76    3.17
 -16   0   3   -2.47    2.85
  16   0  -3    0.91    2.70
 -14   0   3    3.29    2.29
  14   0  -3   -2.16    2.14
  14   0  -3   -1.69    2.39
  14   0  -3    0.53    2.33
  12   0  -3   -0.28    1.87
 -12   0   3    0.35    1.95
  12   0  -3   -1.16    1.42
  12   0  -3    0.90    1.95
 -12   0   3   -2.47    1.51
 -12   0   3    0.24    1.80
  12   0  -3   -0.26    1.62
  10   0  -3   -2.40    1.19
 -10   0   3   -2.38    1.31
 -10   0   3    1.15    1.65
  10   0  -3   -0.36    1.48
 -10   0   3   -2.07    1.19
  10   0  -3   -2.38    1.93
  10   0  -3   -0.82    1.10
   8   0  -3    1.57    1.12
   8   0  -3   -0.21    1.22
   8   0  -3   -1.67    1.09
  -8   0   3   -0.97    1.25
  -8   0   3   -0.58    1.15
   8   0  -3    2.08    1.21
  -8   0   3    1.08    1.14
   6   0  -3    3.19    1.39
  -6   0   3    5.50    1.39
  -4   0   3    0.55    0.92
  -4   0   3    2.07    1.07
  -4   0   3    0.74    0.90
   2   0   3   -0.30    0.99
  -2   0  -3   -0.65    0.92
  -2   0  -3    1.31    0.99
   2   0   3   -0.77    0.86
   4   0   3    0.72    1.12
   4   0   3   -1.57    1.56
   4   0   3   -0.39    1.00
  -4   0  -3    1.68    1.14
  -4   0  -3    0.15    1.10
  -6   0  -3    1.40    1.35
  -6   0  -3    0.35    1.23
   6   0   3    1.42    1.29
   6   0   3    0.92    1.22
   6   0   3    4.55    2.20
  -8   0  -3    0.16    1.30
   8   0   3    0.03    1.29
   8   0   3   -0.97    2.02
  -8   0  -3    0.22    1.58
   8   0   3   -2.43    1.43
  10   0   3    1.39    1.80
  10   0   3   -1.69    2.71
 -10   0  -3   -1.96    1.71
  10   0   3   -1.71    1.49
 -10   0  -3    2.23    1.68
  12   0   3   -2.06    1.92
 -12   0  -3    1.13    2.33
  12   0   3    2.99    3.27
  12   0   3    4.37    2.44
 -14   0  -3   -1.40    2.45
  14   0   3    2.83    4.03
  14   0   3   -4.26    2.52
  16   0   3    1.56    3.32
  16   0   3   -9.01    4.45
 -16   0  -3   -4.67    2.57
 -18   0  -3    3.21    3.91
  18   0   3    2.87    5.75
  18   0   3   -2.20    4.03
  20   0   3    3.04    6.75
 -20   0  -3   -1.15    3.72
  20   0   3    2.68    4.85
  21  -1  -3    0.90    4.31
 -21  -1   3   10.56    4.79
  21  -1  -3    6.45    5.79
  21   1  -3   13.29    4.50
  21   1  -3    9.19    5.89
 -21   1   3    5.97    4.59
  19  -1  -3   21.08    4.84
 -19  -1   3   24.31    4.97
  19  -1  -3   14.62    5.44
 -19   1   3   19.36    4.71
  19   1  -3   20.70    5.52
  19   1  -3   15.07    4.30
  17  -1  -3    9.51    3.73
 -17  -1   3    4.74    3.25
  17  -1  -3   14.37    4.29
  17   1  -3    6.86    3.80
  17   1  -3    5.72    3.02
 -17   1   3    7.98    3.44
  15  -1  -3   16.32    3.25
  15  -1  -3    3.60    3.17
  15  -1  -3    8.40    3.05
 -15  -1   3   14.35    3.57
  15   1  -3   13.45    3.60
 -15   1   3    9.35    3.27
  15   1  -3   15.18    3.57
 -15   1   3   13.93    3.41
  13  -1  -3   15.44    3.30
 -13  -1   3   17.40    2.88
  13  -1  -3    8.48    2.74
 -13  -1   3   17.31    3.18
  13  -1  -3   18.00    2.93
 -13   1   3   16.23    3.18
  13   1  -3   16.94    3.20
 -13   1   3   16.92    3.26
  13   1  -3   16.51    3.25
  11  -1  -3    6.99    2.10
  11  -1  -3   13.05    2.72
 -11  -1   3   12.09    2.60
  11  -1  -3   15.01    2.39
 -11  -1   3   10.82    2.23
 -11   1   3   16.32    2.19
  11   1  -3   12.26    1.89
  11   1  -3   12.39    2.38
  11   1  -3    8.23    1.82
  11   1  -3   12.32    2.67
 -11   1   3   12.76    2.52
 -11   1   3   14.94    2.61
  -9  -1   3    6.67    1.74
  -9  -1   3    5.51    1.80
   9  -1  -3    2.41    1.57
   9  -1  -3    1.55    1.56
   9  -1  -3    0.50    1.47
   9   1  -3    4.57    1.85
  -9   1   3    0.02    1.42
   9   1  -3    6.01    1.64
  -9   1   3    3.76    1.68
   9   1  -3    4.31    1.51
   9   1  -3    2.65    1.29
   9   1  -3    2.24    1.73
   7  -1  -3   90.58    4.59
   7  -1  -3   92.63    4.93
  -7  -1   3   93.11    4.97
   7  -1  -3   97.76    4.71
  -7  -1   3   97.87    4.83
  -7   1   3   97.31    4.87
   7   1  -3   95.97    4.22
   7   1  -3   91.87    4.24
  -7   1   3  102.10    5.11
   7   1  -3   89.49    4.35
   7   1  -3   96.39    4.88
   7   1  -3   97.45    4.40
  -5  -1   3 2152.57   73.06
  -5  -1   3 2102.86   72.91
  -5  -1   3 2078.46   72.96
   5  -1  -3 2058.39   73.15
   5  -1  -3 2034.07   72.62
   5  -1  -3 2021.23   72.89
  -5   1   3 2127.48   72.82
   5   1  -3 2058.23   72.09
   5   1  -3 2038.04   72.10
  -5   1   3 2028.13   73.07
   3  -1  -3   53.20    2.78
  -3  -1   3   60.24    3.20
  -3  -1   3   54.16    2.95
   3   1  -3   54.91    2.26
  -3   1   3   56.49    3.08
   1  -1  -3 2024.98   71.31
  -1  -1   3 1994.93   71.16
   1  -1  -3 2030.91   71.10
  -1  -1   3 2072.83   71.09
  -1   1   3 2030.09   71.05
   1   1  -3 1980.86   71.11
   1   1  -3 2031.56   71.24
  -1   1   3 2056.56   71.17
  -1  -1  -3   81.94    3.84
   1  -1   3   72.87    3.72
   1  -1   3   74.32    3.59
  -1   1  -3   78.87    3.75
   1   1   3   81.05    3.77
  -1   1  -3   74.23    4.41
   3  -1   3   52.62    3.26
  -3  -1  -3   54.35    3.25
  -3  -1  -3   53.84    3.03
   3  -1   3   62.98    4.24
   3  -1   3   49.68    2.91
   3   1   3   48.64    3.16
  -3   1  -3   55.11    2.88
   3   1   3   58.30    4.05
   3   1   3   55.83    2.78
  -3   1  -3   53.77    3.26
  -5  -1  -3   29.97    2.76
  -5  -1  -3   32.86    2.79
   5  -1   3   31.56    3.52
   5  -1   3   36.96    2.96
   5  -1   3   31.71    2.76
   5   1   3   41.70    4.04
   5   1   3   31.41    2.22
   5   1   3   30.73    2.94
  -5   1  -3   26.73    2.71
  -5   1  -3   30.98    2.25
   7  -1   3  454.84   19.23
  -7  -1  -3  469.29   17.98
   7  -1   3  465.11   18.08
  -7  -1  -3  452.11   18.14
   7  -1   3  464.24   18.18
  -7   1  -3  491.51   17.40
   7   1   3  468.91   18.41
   7   1   3  481.85   19.31
  -7   1  -3  454.88   18.21
   7   1   3  485.15   17.44
   9  -1   3   26.16    4.19
   9  -1   3   33.50    3.66
  -9  -1  -3   29.29    3.45
   9  -1   3   29.41    3.19
  -9  -1  -3   34.78    3.30
   9   1   3   31.23    3.74
   9   1   3   33.75    2.80
   9   1   3   34.30    4.67
  -9   1  -3   22.55    3.23
  -9   1  -3   32.06    2.71
  11  -1   3   30.28    3.57
  11  -1   3   20.87    3.45
  11  -1   3   32.80    5.03
 -11  -1  -3   27.44    3.39
 -11  -1  -3   22.85    3.59
  11   1   3   21.84    4.57
  11   1   3   20.96    3.61
 -11   1  -3   27.21    3.87
 -13  -1  -3   25.70    4.06
  13  -1   3   23.16    3.93
  13  -1   3   34.72    4.22
  13  -1   3   31.90    5.79
  13   1   3   38.02    6.08
 -13   1  -3   22.95    3.87
  13   1   3   19.31    3.96
  15  -1   3   13.44    3.77
 -15  -1  -3    7.17    3.19
  15  -1   3   11.10    5.28
 -15   1  -3    3.67    3.19
  15   1   3    8.76    3.72
  15   1   3   -0.77    4.65
 -17  -1  -3   13.17    4.38
  17  -1   3    6.57    3.93
  17  -1   3   15.49    5.95
  17   1   3   15.84    6.16
 -17   1  -3   11.00    3.93
  17   1   3    9.91    4.41
 -19  -1  -3   -4.56    3.58
  19  -1   3   -4.29    3.66
  19  -1   3    2.42    6.83
 -19   1  -3    0.01    3.63
  19   1   3   -4.18    5.92
  19   1   3   10.89    4.66
 -20  -2   3    9.19    3.74
  20  -2  -3    5.05    5.08
  20  -2  -3    4.14    4.30
  20   2  -3    9.97    5.53
  20   2  -3    4.75    3.77
 -20   2   3    4.39    4.23
  18  -2  -3   43.27    5.90
  18  -2  -3   53.65    7.26
 -18  -2   3   48.50    6.13
  18   2  -3   46.63    6.72
  18   2  -3   47.60    6.10
 -18   2   3   48.60    6.12
  16  -2  -3    0.52    3.35
  16  -2  -3    1.95    2.78
 -16  -2   3    5.32    3.00
  16   2  -3   -1.75    3.25
  16   2  -3    0.47    2.63
 -16   2   3    4.10    2.92
 -16   2   3   -0.24    2.84
  14  -2  -3  646.83   24.34
 -14  -2   3  595.70   23.99
 -14  -2   3  584.84   24.58
  14  -2  -3  622.34   25.19
 -14   2   3  611.06   24.63
  14   2  -3  603.55   24.68
  14   2  -3  621.94   24.76
 -14   2   3  597.01   24.87
 -12  -2   3   28.91    3.78
  12  -2  -3   28.51    4.02
 -12  -2   3   30.84    3.72
  12  -2  -3   27.61    3.83
  12  -2  -3   26.41    3.54
 -12   2   3   32.90    3.73
  12   2  -3   21.94    3.48
 -12   2   3   30.12    3.80
  12   2  -3   29.73    3.84
  10  -2  -3   80.03    5.48
 -10  -2   3   75.83    5.17
  10  -2  -3   87.52    5.28
  10  -2  -3   82.87    5.54
 -10  -2   3   90.05    5.28
 -10   2   3   82.34    5.45
 -10   2   3   87.66    5.13
  10   2  -3   74.18    5.16
  10   2  -3   85.80    4.32
  10   2  -3   88.42    4.08
  10   2  -3   81.37    5.13
   8  -2  -3   89.32    5.20
   8  -2  -3   86.92    5.30
   8  -2  -3   82.71    4.87
  -8  -2   3   89.77    5.00
  -8   2   3   85.29    4.79
   8   2  -3   80.67    4.70
   8   2  -3   91.79    4.83
  -8   2   3   72.77    4.91
   6  -2  -3  253.84   10.80
   6  -2  -3  255.97   10.65
   6  -2  -3  254.72   10.95
  -6  -2   3  255.41   10.75
  -6  -2   3  276.70   10.81
   6   2  -3  270.61   10.47
  -6   2   3  268.74   10.40
  -6   2   3  264.92   10.82
   6   2  -3  259.99   10.40
  -4  -2   3 1698.76   60.14
   4  -2  -3 1700.44   60.27
   4  -2  -3 1663.63   60.21
   4   2  -3 1740.99   59.64
  -4   2   3 1691.62   60.08
   4   2  -3 1625.87   59.81
  -4   2   3 1724.19   59.60
   2  -2  -3 2872.76   99.37
  -2  -2   3 2815.05   99.66
  -2  -2   3 2876.68   99.27
  -2   2   3 2900.76   99.50
  -2   2   3 2862.40   99.63
   2   2  -3 2780.41   99.78
   2   2  -3 2751.10   99.59
   0  -2  -3 7647.84  265.17
   0  -2   3 7736.92  264.55
   0  -2   3 7954.49  264.60
   0  -2  -3 7731.14  264.67
   0   2   3 7710.17  264.32
   0   2  -3 6696.07  265.08
   0   2   3 7617.05  264.66
   0   2  -3 7633.74  264.69
  -2  -2  -3  141.07    6.73
  -2  -2  -3  170.38    8.18
   2  -2   3  169.67    8.06
   2  -2   3  185.32    7.43
   2  -2   3  188.17    6.96
   2   2   3  170.94    6.68
   2   2   3  174.09    8.09
  -2   2  -3  177.78    8.19
   2   2   3  175.16    7.36
  -2   2  -3  157.54    7.28
  -2   2  -3  173.32    6.99
   4  -2   3  451.36   17.38
  -4  -2  -3  394.14   17.21
   4  -2   3  444.97   18.15
  -4  -2  -3  463.07   16.99
   4   2   3  446.68   17.35
  -4   2  -3  457.70   17.38
  -4   2  -3  459.24   16.94
  -4   2  -3  460.93   16.53
  -4   2  -3  471.18   18.30
   4   2   3  480.44   18.17
  -6  -2  -3  144.01    7.00
  -6  -2  -3  144.32    7.25
   6  -2   3  163.97    7.39
  -6   2  -3  145.45    7.33
   6   2   3  167.94    6.17
  -6   2  -3  151.05    6.27
   6   2   3  160.95    7.48
  -6   2  -3  145.46    6.99
  -8  -2  -3   15.45    2.52
   8  -2   3   19.80    2.82
  -8  -2  -3   17.41    2.79
   8  -2   3   17.83    2.63
   8  -2   3   17.42    3.65
   8   2   3   12.57    3.27
   8   2   3   22.84    1.97
   8   2   3   19.95    3.06
  -8   2  -3   17.23    2.01
  -8   2  -3   15.82    2.80
  10  -2   3    7.64    3.39
  10  -2   3    0.68    2.06
 -10  -2  -3    2.27    2.06
  10  -2   3    0.82    2.11
 -10  -2  -3    3.07    2.09
 -10   2  -3    0.88    2.08
  10   2   3    0.48    2.02
  10   2   3   -3.31    2.51
 -12  -2  -3    3.79    2.62
  12  -2   3    6.30    4.09
  12  -2   3    3.60    2.68
 -12  -2  -3    9.47    2.88
  12  -2   3    4.89    2.56
  12   2   3    2.98    2.66
 -12   2  -3    5.76    2.58
  12   2   3    5.11    3.71
  14  -2   3  143.96   11.12
  14  -2   3  149.17    9.22
  14  -2   3  153.40    8.95
 -14  -2  -3  157.54    9.13
 -14   2  -3  147.46    9.09
  14   2   3  159.69    9.64
  14   2   3  146.41   11.16
 -16  -2  -3    2.36    3.30
  16  -2   3   -2.38    2.90
  16  -2   3    6.75    5.10
  16   2   3    9.30    5.56
  16   2   3    4.12    3.63
 -16   2  -3    3.16    3.20
  18  -2   3    1.00    3.86
  18  -2   3    6.78    6.78
 -18  -2  -3    2.43    3.25
  18   2   3    7.28    4.63
 -18   2  -3    4.26    3.75
  18   2   3    2.82    5.96
  21  -3  -3   24.30    6.06
  21  -3  -3   25.58    7.56
 -21  -3   3   20.84    5.02
 -21   3   3   16.71    5.31
  21   3  -3   24.67    5.83
  21   3  -3    9.86    6.28
  19  -3  -3    1.29    3.77
 -19  -3   3    1.34    2.93
  19  -3  -3    2.05    4.37
  19  -3  -3   -6.37    4.50
 -19   3   3    5.41    3.95
 -19   3   3   -1.75    3.71
  19   3  -3    0.70    3.51
  19   3  -3   -5.21    4.50
  17  -3  -3   34.89    6.26
  17  -3  -3   42.21    5.69
 -17  -3   3   13.18    3.68
 -17   3   3   33.15    5.36
  17   3  -3   33.02    5.75
 -17   3   3   36.17    5.59
  17   3  -3   43.37    5.58
  15  -3  -3    4.00    2.87
 -15  -3   3    3.13    2.99
 -15  -3   3    0.14    2.36
  15  -3  -3   -2.16    3.45
 -15   3   3    2.56    2.80
  15   3  -3    0.80    3.33
  15   3  -3    3.28    2.86
 -15   3   3    2.26    2.74
 -13  -3   3   11.32    2.98
 -13  -3   3   11.04    2.97
  13  -3  -3    7.91    3.55
  13  -3  -3   10.30    3.07
  13  -3  -3    8.58    3.23
  13   3  -3   13.80    3.68
 -13   3   3    7.07    2.94
  13   3  -3    8.92    2.89
 -13   3   3    7.30    2.70
  11  -3  -3   21.77    3.93
 -11  -3   3   17.76    3.19
  11  -3  -3   21.51    3.56
 -11  -3   3   21.61    3.29
  11  -3  -3   20.09    3.21
 -11   3   3   18.58    3.34
  11   3  -3   20.14    3.56
 -11   3   3   21.58    3.22
  11   3  -3   25.59    3.47
  -9  -3   3   58.78    4.89
   9  -3  -3   61.33    4.87
   9  -3  -3   67.30    5.59
  -9  -3   3   67.32    4.93
   9  -3  -3   65.93    5.68
   9   3  -3   60.89    4.45
  -9   3   3   61.17    4.30
  -9   3   3   65.82    4.70
   9   3  -3   60.12    5.03
   7  -3  -3  112.79    6.14
   7  -3  -3  115.60    6.60
  -7  -3   3  113.41    6.19
   7  -3  -3  133.42    6.87
  -7  -3   3  116.50    6.39
  -7   3   3  127.32    5.95
   7   3  -3  119.10    5.94
  -7   3   3  118.76    6.29
   7   3  -3  118.42    6.32
  -5  -3   3  515.46   20.10
  -5  -3   3  529.01   18.93
   5  -3  -3  505.71   20.46
   5  -3  -3  519.50   20.32
   5  -3  -3  511.23   19.92
  -5  -3   3  521.32   19.99
   5  -3  -3  550.91   19.12
  -5   3   3  519.10   20.00
  -5   3   3  531.83   19.46
   5   3  -3  535.88   19.51
   5   3  -3  520.25   20.15
  -3  -3   3  761.45   28.59
   3  -3  -3  779.34   28.69
   3  -3  -3  769.66   29.11
  -3  -3   3  773.09   27.86
   3  -3  -3  759.17   28.36
   3  -3  -3  814.28   28.14
   3   3  -3  796.79   27.88
   3   3  -3  758.33   28.53
   3   3  -3  740.65   28.86
  -3   3   3  791.05   27.93
  -3   3   3  787.25   28.55
   1  -3  -3   29.36    2.62
   1  -3  -3   29.16    3.47
  -1  -3   3   30.96    2.73
   1  -3  -3   27.63    2.45
   1  -3  -3   23.18    2.44
  -1  -3   3   31.28    2.57
   1   3  -3   26.44    3.43
  -1   3   3   31.29    2.83
  -1   3   3   31.83    2.25
   1   3  -3   29.50    2.66
  -1  -3  -3   62.10    3.90
   1  -3   3   58.53    3.88
  -1  -3  -3   64.80    3.58
   1  -3   3   63.76    3.64
  -1  -3  -3   72.23    5.49
  -1  -3  -3   59.94    3.32
  -1   3  -3   68.33    3.27
  -1   3  -3   62.81    4.01
  -1   3  -3   63.41    4.73
   1   3   3   66.42    3.39
   1   3   3   71.76    5.42
   1   3   3   58.98    3.90
   3  -3   3  453.74   18.09
   3  -3   3  407.61   16.90
  -3  -3  -3  450.98   18.01
   3  -3   3  447.78   16.28
  -3  -3  -3  423.50   17.05
  -3  -3  -3  449.29   16.43
   3   3   3  419.15   16.87
  -3   3  -3  433.07   17.98
   3   3   3  431.42   17.86
   3   3   3  436.75   15.90
  -3   3  -3  448.20   17.05
  -3   3  -3  434.40   16.28
   5  -3   3  242.93    9.25
   5  -3   3  246.70   11.61
   5  -3   3  233.65   10.42
  -5  -3  -3  241.99   10.00
  -5  -3  -3  234.51   10.53
  -5   3  -3  239.04   11.45
  -5   3  -3  240.58   10.39
   5   3   3  242.51   11.56
   5   3   3  237.44   10.46
  -5   3  -3  228.18    9.81
   7  -3   3  329.75   15.11
  -7  -3  -3  322.05   13.94
  -7  -3  -3  335.86   13.63
   7  -3   3  349.29   14.12
   7   3   3  325.04   13.99
  -7   3  -3  310.70   16.28
  -7   3  -3  333.22   12.40
  -7   3  -3  328.86   14.00
   7   3   3  336.84   15.11
  -7   3  -3  333.04   13.54
   9  -3   3   12.38    3.68
  -9  -3  -3    7.79    2.30
   9  -3   3   10.41    2.77
  -9  -3  -3   14.42    3.03
  -9   3  -3    7.78    2.26
  -9   3  -3    9.68    2.74
   9   3   3    7.95    2.59
   9   3   3   10.08    3.47
 -11  -3  -3    6.18    2.56
 -11  -3  -3   11.97    3.14
  11  -3   3    4.50    2.62
  11  -3   3   15.09    3.29
  11  -3   3    2.71    3.91
  11   3   3   11.88    3.38
  11   3   3    9.42    4.14
 -11   3  -3   13.10    3.22
 -13  -3  -3    2.68    2.94
  13  -3   3    0.33    2.85
  13  -3   3   -4.68    3.93
  13  -3   3   -0.41    2.50
 -13  -3  -3   -0.96    2.22
  13   3   3    4.01    2.73
 -13   3  -3   -3.61    2.61
  13   3   3    1.77    4.39
 -15  -3  -3    2.71    2.87
  15  -3   3    2.97    4.98
  15  -3   3    0.56    3.27
  15  -3   3    3.15    3.34
 -15  -3  -3    7.57    4.12
  15   3   3   -2.75    2.98
  15   3   3    1.41    5.00
 -15   3  -3   -0.28    2.89
  17  -3   3    2.20    5.50
 -17  -3  -3    6.76    3.67
  17  -3   3    4.49    3.86
  17  -3   3    1.69    4.46
 -17   3  -3   -3.00    3.36
  17   3   3   11.11    6.56
  17   3   3    7.98    4.36
 -19  -3  -3   19.98    5.16
  19  -3   3    9.86    4.72
  19  -3   3   16.06    7.84
  19   3   3   13.92    7.47
  19   3   3   14.20    5.75
 -19   3  -3   14.79    5.39
  20  -4  -3   -0.61    4.77
 -20  -4   3   -1.28    3.03
  20  -4  -3    1.14    5.98
  20   4  -3   -1.02    5.68
 -20   4   3    1.89    4.58
  20   4  -3   -1.09    4.74
 -20   4   3   -4.76    3.80
  18  -4  -3    1.95    3.97
  18  -4  -3    2.56    4.92
 -18  -4   3   -0.37    2.81
  18   4  -3   -2.53    4.64
  18   4  -3   -1.11    3.24
 -18   4   3   -4.12    3.01
 -18   4   3    0.57    3.51
  16  -4  -3   13.81    5.09
  16  -4  -3   14.01    3.85
 -16  -4   3   10.11    3.45
 -16  -4   3    6.60    3.77
 -16   4   3    6.55    3.60
  16   4  -3    7.59    4.51
 -16   4   3    5.72    3.17
  16   4  -3    6.41    3.40
  14  -4  -3  129.81    8.58
  14  -4  -3  159.49   10.67
 -14  -4   3  134.21    8.87
 -14  -4   3  147.87    8.80
  14   4  -3  163.82    9.23
 -14   4   3  128.75    8.65
 -14   4   3  157.41    9.03
  14   4  -3  152.84    9.92
 -12  -4   3    6.08    2.68
  12  -4  -3   11.49    3.85
  12  -4  -3    2.16    2.69
 -12  -4   3    4.78    2.66
  12  -4  -3    5.73    3.12
  12   4  -3    7.17    3.35
 -12   4   3    3.68    2.45
  12   4  -3    7.57    2.89
 -12   4   3    3.91    2.68
  10  -4  -3   11.01    3.12
 -10  -4   3   11.43    2.93
  10  -4  -3    9.98    2.89
 -10  -4   3    4.99    2.35
  10  -4  -3    4.23    2.95
  10   4  -3   10.65    2.58
  10   4  -3    9.49    3.02
 -10   4   3    8.55    2.71
 -10   4   3    6.99    2.43
   8  -4  -3  181.17    9.67
   8  -4  -3  204.66   10.28
  -8  -4   3  195.09    9.56
  -8  -4   3  195.04    9.44
   8  -4  -3  189.60    9.36
  -8   4   3  198.74    8.98
   8   4  -3  197.46    9.83
   8   4  -3  205.46    9.12
  -8   4   3  197.07    9.37
   6  -4  -3  508.39   19.83
   6  -4  -3  508.44   20.75
  -6  -4   3  486.19   19.97
  -6  -4   3  490.02   19.83
   6  -4  -3  503.67   20.28
  -6  -4   3  522.98   18.42
   6  -4  -3  543.28   18.76
   6   4  -3  474.91   20.30
   6   4  -3  521.21   19.38
  -6   4   3  537.31   19.38
  -6   4   3  459.89   19.75
   4  -4  -3   19.05    2.82
   4  -4  -3   23.42    2.45
  -4  -4   3   18.75    2.01
   4  -4  -3   21.15    3.55
  -4  -4   3   17.52    2.72
   4  -4  -3   16.66    2.49
  -4   4   3   17.84    2.22
   4   4  -3   22.54    3.45
  -4   4   3   17.29    2.54
   4   4  -3   20.29    2.74
   4   4  -3   24.56    2.42
  -2  -4   3   16.41    2.50
   2  -4  -3   22.87    2.78
   2  -4  -3   25.57    3.82
   2  -4  -3   24.98    2.71
   2  -4  -3   21.85    2.55
  -2  -4   3   19.22    2.31
   2   4  -3   23.67    3.64
   2   4  -3   19.90    2.60
  -2   4   3   16.01    2.50
   2   4  -3   27.20    2.34
  -2   4   3   22.59    2.28
   0  -4   3  230.50    9.93
   0  -4  -3  233.80   10.11
   0  -4   3  242.80    9.98
   0  -4  -3  231.03    9.54
   0  -4  -3  239.66    9.88
   0  -4  -3  235.57   11.11
   0   4  -3  230.11   10.16
   0   4  -3  240.12   11.23
   0   4   3  223.41   10.02
   0   4  -3  236.61    9.27
   0   4   3  233.44    9.47
  -2  -4  -3  385.56   14.34
  -2  -4  -3  378.37   14.54
  -2  -4  -3  393.46   16.51
  -2  -4  -3  348.78   15.29
   2  -4   3  385.81   16.36
   2  -4   3  377.65   15.26
   2  -4   3  381.58   14.76
   2   4   3  399.07   14.74
   2   4   3  385.99   16.53
  -2   4  -3  382.56   16.53
  -2   4  -3  380.42   14.43
   2   4   3  379.05   15.30
  -2   4  -3  365.37   15.30
   4  -4   3   46.24    4.13
  -4  -4  -3   48.74    2.91
   4  -4   3   53.19    3.30
  -4  -4  -3   47.72    4.35
  -4  -4  -3   59.88    6.04
  -4  -4  -3   48.48    3.47
  -4  -4  -3   49.66    3.09
   4  -4   3   45.81    5.17
  -4   4  -3   49.06    4.19
   4   4   3   46.21    4.19
  -4   4  -3   59.86    5.80
  -4   4  -3   41.75    3.27
   4   4   3   55.49    5.54
  -6  -4  -3   21.98    3.16
   6  -4   3   32.08    4.93
   6  -4   3   21.35    3.26
  -6  -4  -3   16.51    2.54
   6  -4   3   27.13    2.60
  -6   4  -3   24.78    2.83
   6   4   3   19.83    3.13
  -6   4  -3   21.41    4.54
  -6   4  -3   25.57    3.43
   6   4   3   21.32    4.24
  -8  -4  -3  234.16   11.62
  -8  -4  -3  249.32   11.39
   8  -4   3  256.06   13.17
   8  -4   3  264.24   11.99
  -8   4  -3  247.56   11.69
   8   4   3  262.37   11.96
  -8   4  -3  258.25   11.28
   8   4   3  255.69   13.28
  10  -4   3  133.49    9.45
 -10  -4  -3  111.87    7.28
  10  -4   3  117.40    7.62
 -10  -4  -3  107.06    6.88
  10   4   3  132.07    9.29
 -10   4  -3  105.42    6.87
 -10   4  -3  116.95    7.49
  10   4   3   98.62    7.18
  12  -4   3   25.28    5.79
  12  -4   3   19.88    4.02
 -12  -4  -3   25.52    4.45
 -12  -4  -3   20.12    3.90
  12   4   3   20.84    5.66
 -12   4  -3   19.40    3.78
  12   4   3   22.70    4.04
 -12   4  -3   29.66    4.77
 -14  -4  -3   34.97    5.03
 -14  -4  -3   51.42    6.09
  14  -4   3   48.30    5.95
  14  -4   3   42.45    5.50
  14  -4   3   26.01    6.77
  14   4   3   37.27    7.44
  14   4   3   39.76    5.81
 -14   4  -3   52.95    6.35
  16  -4   3    4.11    3.81
  16  -4   3    8.97    6.35
 -16  -4  -3    2.12    3.55
  16  -4   3    7.53    4.04
 -16  -4  -3    7.32    4.69
  16   4   3    5.79    6.10
  16   4   3    5.16    3.90
 -16   4  -3   -1.02    3.61
 -18  -4  -3   13.70    4.78
  18  -4   3   13.88    5.09
  18  -4   3    3.70    7.37
  18  -4   3    7.00    5.17
  18   4   3    3.23    4.13
  18   4   3   15.34    7.44
 -18   4  -3   13.34    5.10
 -19  -5   3   10.07    4.37
  19  -5  -3   12.85    6.62
  19  -5  -3   16.48    5.30
  19   5  -3   16.52    5.12
  19   5  -3   10.80    6.32
 -19   5   3   14.63    4.80
 -19   5   3   15.04    4.98
  17  -5  -3    2.19    3.74
 -17  -5   3   -1.07    3.81
 -17  -5   3    1.65    3.18
  17  -5  -3    3.17    5.36
  17   5  -3   -5.88    2.94
  17   5  -3    0.54    4.86
 -17   5   3    6.98    3.63
 -17   5   3    0.67    3.58
 -15  -5   3    1.77    3.04
 -15  -5   3    1.61    3.64
  15  -5  -3   -0.29    2.93
  15  -5  -3   -6.23    4.22
 -15   5   3    4.01    3.25
  15   5  -3    2.19    3.00
 -15   5   3   -1.80    2.75
  15   5  -3    5.72    4.48
  13  -5  -3   20.48    5.69
 -13  -5   3   19.03    4.05
 -13  -5   3   21.21    4.38
  13  -5  -3   19.53    4.07
 -13   5   3   16.04    3.73
  13   5  -3   19.60    3.89
 -13   5   3   28.59    4.40
  13   5  -3   21.92    5.21
  11  -5  -3   30.28    5.44
  11  -5  -3   38.62    5.07
  11  -5  -3   32.54    4.42
 -11  -5   3   35.11    4.73
 -11  -5   3   35.19    4.49
  11   5  -3   31.04    5.16
 -11   5   3   29.11    4.23
 -11   5   3   36.27    4.34
  11   5  -3   34.30    4.38
   9  -5  -3   15.08    3.32
   9  -5  -3   10.71    3.25
  -9  -5   3   25.64    3.79
   9  -5  -3   20.25    4.45
  -9  -5   3   16.15    3.46
   9   5  -3   24.97    4.40
  -9   5   3   17.82    3.31
  -9   5   3   23.61    3.24
   9   5  -3   22.44    3.31
  -7  -5   3    8.85    2.76
   7  -5  -3    9.44    2.76
   7  -5  -3   11.01    2.73
   7  -5  -3   11.49    3.50
   7   5  -3    6.42    3.26
  -7   5   3    9.46    2.49
   7   5  -3   11.37    2.45
  -7   5   3    7.87    2.17
   7   5  -3    8.53    2.62
  -5  -5   3   12.30    1.87
   5  -5  -3    9.34    2.61
   5  -5  -3   11.69    2.46
  -5  -5   3    9.81    2.54
   5  -5  -3   13.65    3.58
   5  -5  -3   13.83    2.26
   5   5  -3    8.96    2.44
  -5   5   3    5.40    2.23
   5   5  -3   12.41    3.45
   5   5  -3   12.46    2.28
  -5   5   3    6.84    2.04
   3  -5  -3 1294.87   47.52
   3  -5  -3 1320.91   46.38
   3  -5  -3 1238.15   45.78
  -3  -5   3 1269.42   45.24
  -3  -5   3 1241.13   46.20
   3  -5  -3 1222.84   45.53
   3   5  -3 1190.26   46.00
  -3   5   3 1269.56   47.42
  -3   5   3 1225.41   45.98
   3   5  -3 1277.15   45.28
   3   5  -3 1283.58   47.49
  -3   5   3 1275.01   45.45
  -1  -5   3 1084.43   39.91
   1  -5  -3 1049.37   39.79
  -1  -5   3 1053.87   40.26
   1  -5  -3 1089.36   40.26
   1  -5  -3 1150.87   41.96
   1  -5  -3 1111.95   40.27
   1   5  -3 1087.05   40.41
   1   5  -3 1092.23   41.77
  -1   5   3 1138.33   39.74
   1   5  -3 1107.24   39.52
  -1   5   3 1118.59   41.81
  -1   5   3 1076.62   40.33
  -1  -5  -3  606.67   24.01
  -1  -5  -3  586.69   21.67
   1  -5   3  600.16   22.36
   1  -5   3  573.88   22.14
   1  -5   3  595.88   23.80
  -1  -5  -3  566.76   21.98
  -1  -5  -3  568.43   22.57
  -1   5  -3  583.17   21.58
  -1   5  -3  579.66   22.62
   1   5   3  565.17   23.78
   1   5   3  586.43   21.82
   1   5   3  572.97   22.46
  -1   5  -3  540.25   23.77
  -3  -5  -3  183.27    7.56
  -3  -5  -3  166.64    8.76
   3  -5   3  174.70    8.67
  -3  -5  -3  178.68    7.81
  -3  -5  -3  181.21   10.44
   3  -5   3  165.32    7.93
   3  -5   3  189.63   10.37
  -3   5  -3  180.37   10.48
   3   5   3  181.47   10.35
  -3   5  -3  187.26    8.96
   3   5   3  184.39    8.83
   3   5   3  169.28    8.04
  -3   5  -3  172.03    7.83
   5  -5   3   -1.12    2.15
  -5  -5  -3    1.43    2.04
   5  -5   3    1.40    1.72
  -5  -5  -3    2.22    1.81
   5  -5   3   -1.12    2.80
   5   5   3    1.81    2.08
  -5   5  -3    0.37    1.55
  -5   5  -3    2.25    2.21
   5   5   3   -4.32    2.97
  -5   5  -3   -0.46    3.78
   7  -5   3  135.41    7.96
   7  -5   3  132.58    9.33
  -7  -5  -3  120.98    7.19
  -7  -5  -3  133.19    7.95
   7   5   3  128.91    7.79
  -7   5  -3  140.91    7.92
  -7   5  -3  143.43    7.26
   7   5   3  139.63    9.64
  -9  -5  -3  390.42   17.00
   9  -5   3  361.93   16.83
  -9  -5  -3  375.25   16.21
   9  -5   3  401.19   18.82
   9   5   3  402.92   16.99
  -9   5  -3  365.74   16.14
  -9   5  -3  378.12   16.73
 -11  -5  -3  163.32    9.15
  11  -5   3  147.26    9.44
  11  -5   3  160.94   11.86
 -11  -5  -3  157.45    9.86
  11   5   3  130.04    9.39
 -11   5  -3  165.56    9.68
 -11   5  -3  158.13    9.10
  11   5   3  162.52   11.63
 -13  -5  -3   -0.82    3.43
  13  -5   3   -0.15    4.83
 -13  -5  -3    3.50    2.89
  13  -5   3   -4.21    2.91
  13   5   3    5.41    5.09
 -13   5  -3    0.44    3.24
  13   5   3    1.54    3.26
 -13   5  -3   -1.42    2.82
  15  -5   3   -2.56    5.64
 -15  -5  -3   -3.29    3.54
  15  -5   3   -0.34    3.68
 -15  -5  -3   -0.88    3.29
  15  -5   3    0.32    3.38
 -15   5  -3   -0.61    3.73
  15   5   3    2.50    3.46
  15   5   3   -3.71    5.16
  17  -5   3   13.21    8.73
 -17  -5  -3   13.47    6.00
  17  -5   3    8.47    4.56
 -17  -5  -3   11.51    4.42
  17  -5   3    7.63    4.79
 -17   5  -3    9.08    4.85
  17   5   3    4.15    7.06
  17   5   3   -0.80    3.82
 -18  -6   3    4.64    3.97
 -18  -6   3    4.22    4.72
  18  -6  -3    2.62    4.02
  18  -6  -3    0.04    6.55
  18   6  -3    4.54    4.51
 -18   6   3    1.41    4.32
  18   6  -3   -0.76    5.90
 -18   6   3    6.34    4.34
 -16  -6   3    1.82    3.27
  16  -6  -3    4.82    6.00
 -16  -6   3   -1.04    3.68
  16  -6  -3    0.17    3.92
 -16   6   3   -0.30    3.58
 -16   6   3    0.79    3.58
  16   6  -3   -5.12    4.87
  16   6  -3    5.51    3.75
  14  -6  -3   -0.91    2.89
 -14  -6   3    4.95    3.24
 -14  -6   3   -0.88    3.65
  14  -6  -3    1.96    5.10
  14   6  -3   -2.03    4.43
 -14   6   3   -1.42    2.88
  14   6  -3    4.15    3.23
 -14   6   3   -1.42    2.86
 -12  -6   3   64.52    6.85
 -12  -6   3   62.03    6.47
  12  -6  -3   72.19    6.94
  12  -6  -3   93.57    9.75
 -12   6   3   77.89    7.09
  12   6  -3   68.06    6.51
 -12   6   3   62.29    6.07
  12   6  -3   66.60    7.82
 -10  -6   3   -1.62    2.73
  10  -6  -3    6.61    3.06
  10  -6  -3   -3.50    3.80
 -10  -6   3    4.77    2.73
 -10   6   3    1.88    2.50
 -10   6   3    7.96    2.89
  10   6  -3    2.21    4.03
  10   6  -3    5.89    3.01
  -8  -6   3    4.38    2.84
   8  -6  -3    7.24    3.23
   8  -6  -3    9.36    3.11
   8  -6  -3    6.45    3.87
   8   6  -3    2.66    3.87
  -8   6   3    6.36    2.72
  -8   6   3    9.10    2.69
   8   6  -3    7.15    2.72
   8   6  -3    6.94    2.94
   6  -6  -3  204.96   10.22
  -6  -6   3  200.56   10.37
   6  -6  -3  213.31   12.01
   6  -6  -3  205.00   10.68
  -6   6   3  207.44    9.60
   6   6  -3  203.21    9.68
   6   6  -3  218.79   11.94
   6   6  -3  194.49   10.27
  -6   6   3  202.82   10.13
  -4  -6   3   93.99    6.61
   4  -6  -3  106.95    6.99
   4  -6  -3  103.49    8.70
   4  -6  -3  104.37    6.05
   4  -6  -3  105.30    6.57
  -4  -6   3  103.44    5.60
   4   6  -3   99.69    5.90
  -4   6   3  101.04    6.42
   4   6  -3   98.83    8.69
  -4   6   3  120.21    6.24
   4   6  -3  100.46    6.52
  -2  -6   3    1.29    1.87
   2  -6  -3    5.14    2.30
   2  -6  -3   -3.90    3.15
   2  -6  -3    3.67    2.37
   2  -6  -3    2.92    2.02
  -2  -6   3    2.57    2.21
   2   6  -3    0.11    3.41
  -2   6   3    0.74    1.93
   2   6  -3    5.32    2.63
  -2   6   3    4.07    2.03
   2   6  -3    2.43    1.80
   0  -6  -3  173.05    8.99
   0  -6   3  174.46    8.79
   0  -6   3  177.86    8.92
   0  -6  -3  187.80   10.93
   0  -6  -3  178.07    8.40
   0  -6  -3  180.27    8.87
   0   6  -3  193.21   11.31
   0   6  -3  185.15    8.26
   0   6   3  180.08    9.02
   0   6  -3  173.83    9.21
   0   6   3  178.83   11.20
   0   6   3  183.23    8.54
   2  -6   3  428.03   16.97
  -2  -6  -3  405.73   16.32
   2  -6   3  426.81   17.51
  -2  -6  -3  412.15   16.70
  -2  -6  -3  408.95   17.64
   2   6   3  425.60   16.88
   2   6   3  425.57   19.40
   2   6   3  421.34   17.57
  -2   6  -3  409.20   17.55
  -2   6  -3  428.63   19.46
  -2   6  -3  428.20   16.55
   4  -6   3   46.90    4.97
   4  -6   3   55.22    6.95
  -4  -6  -3   40.49    4.88
   4  -6   3   46.63    4.24
   4   6   3   47.89    4.95
  -4   6  -3   45.32    4.77
   4   6   3   39.91    4.17
   4   6   3   53.97    6.70
  -4   6  -3   38.14    3.90
   6  -6   3   19.15    5.32
   6  -6   3   19.20    3.73
  -6  -6  -3   12.48    3.56
  -6   6  -3   12.65    2.84
  -6   6  -3   18.77    3.54
   6   6   3    8.66    3.12
   6   6   3   15.51    5.10
   6   6   3   11.10    2.96
   8  -6   3    0.60    2.84
  -8  -6  -3    4.40    2.59
   8  -6   3    5.41    5.41
  -8  -6  -3   -0.49    2.95
  -8   6  -3    5.17    3.03
  -8   6  -3    0.44    2.53
   8   6   3    3.92    2.82
   8   6   3    0.95    4.07
  10  -6   3    6.42    3.46
 -10  -6  -3   11.39    4.06
  10  -6   3   11.31    5.83
 -10  -6  -3   14.05    3.46
  10   6   3    2.40    5.22
  10   6   3   10.57    3.52
 -10   6  -3    9.30    3.66
 -10   6  -3    7.06    3.60
 -12  -6  -3   38.43    5.97
  12  -6   3   38.64    5.49
 -12  -6  -3   36.11    5.14
  12  -6   3   34.23    7.82
 -12   6  -3   39.14    5.68
 -12   6  -3   33.65    5.61
  12   6   3   35.94    5.44
  12   6   3   24.85    7.23
 -14  -6  -3   12.18    4.73
  14  -6   3   16.22    4.94
 -14  -6  -3   16.85    4.24
  14   6   3   14.17    4.56
 -14   6  -3   18.57    5.07
  14   6   3   10.90    6.77
 -16  -6  -3   33.43    6.50
 -16  -6  -3   26.47    5.45
  16  -6   3   30.35    5.75
 -16   6  -3   22.12    5.62
  16   6   3   13.40    5.64
  16   6   3   24.94    9.08
 -17  -7   3    3.88    4.65
 -17  -7   3    6.16    4.36
  17  -7  -3   -1.50    6.97
  17  -7  -3    5.31    4.34
 -17   7   3    3.81    4.63
  17   7  -3   -1.83    4.43
  17   7  -3    2.06    6.37
 -17   7   3    2.50    4.28
 -15  -7   3   10.79    4.85
  15  -7  -3    2.83    3.77
 -15  -7   3    9.22    4.10
  15  -7  -3    8.13    6.77
  15   7  -3    6.05    6.33
 -15   7   3   14.30    4.87
  15   7  -3    9.00    4.43
 -15   7   3   11.81    4.47
  13  -7  -3   -2.64    3.09
 -13  -7   3    4.35    3.27
 -13  -7   3    2.21    4.05
  13  -7  -3    3.97    5.72
  13   7  -3    6.85    3.92
 -13   7   3    7.72    3.82
  13   7  -3    6.72    5.63
 -13   7   3    3.17    3.27
  11  -7  -3   44.30    5.94
  11  -7  -3   64.68    8.60
 -11  -7   3   53.85    6.62
  11   7  -3   61.23    6.70
 -11   7   3   65.69    6.22
 -11   7   3   52.76    6.03
  11   7  -3   62.11    8.37
  11   7  -3   54.05    6.07
   9  -7  -3   12.10    3.74
  -9  -7   3   11.49    4.03
   9  -7  -3   12.61    5.30
   9   7  -3   16.09    3.75
  -9   7   3    8.69    3.22
   9   7  -3    9.65    3.62
   9   7  -3   11.39    5.32
  -9   7   3   15.55    3.40
   7  -7  -3    1.53    2.66
   7  -7  -3   -1.45    4.18
  -7  -7   3   -0.27    2.78
  -7   7   3    4.36    2.72
  -7   7   3    6.68    3.05
   7   7  -3    3.26    4.11
   7   7  -3    3.33    2.70
   7   7  -3    2.65    3.06
   5  -7  -3    5.25    4.45
  -5  -7   3   -0.07    2.91
   5  -7  -3    6.66    3.26
   5  -7  -3    4.35    2.72
   5  -7  -3    4.10    3.95
  -5   7   3    5.54    2.86
   5   7  -3    1.48    2.54
   5   7  -3    2.94    2.84
  -5   7   3    5.73    2.67
   5   7  -3    7.83    5.05
   3  -7  -3   65.18    5.62
   3  -7  -3   61.79    5.98
  -3  -7   3   70.51    4.89
  -3  -7   3   55.47    5.65
   3  -7  -3   65.76    8.04
   3  -7  -3   56.37    5.41
  -3   7   3   60.98    5.27
  -3   7   3   54.36    5.37
   3   7  -3   60.82    5.89
   3   7  -3   60.53    7.79
   3   7  -3   67.39    5.34
   1  -7  -3  286.97   13.22
  -1  -7   3  286.10   12.68
   1  -7  -3  289.74   13.20
   1  -7  -3  283.15   12.65
  -1  -7   3  276.46   13.22
  -1   7   3  295.36   13.29
   1   7  -3  295.97   12.70
   1   7  -3  263.64   15.35
   1   7  -3  281.93   13.40
  -1   7   3  293.00   12.68
   1  -7   3  909.98   34.27
  -1  -7  -3  844.33   34.56
   1  -7   3  919.92   34.31
  -1  -7  -3  897.56   33.53
  -1  -7  -3  912.17   34.11
   1   7   3  898.03   33.85
  -1   7  -3  891.79   34.71
  -1   7  -3  956.49   37.39
   1   7   3  881.61   34.56
  -3  -7  -3  356.33   16.50
   3  -7   3  371.36   15.62
   3  -7   3  365.62   16.25
  -3   7  -3  348.27   16.34
   3   7   3  375.27   18.89
   3   7   3  370.93   15.64
   3   7   3  384.35   16.38
  -5  -7  -3  210.08   11.62
   5  -7   3  211.86   11.65
   5   7   3  240.38   11.15
   5   7   3  215.35   11.37
   5   7   3  222.86   14.42
  -5   7  -3  229.28   11.81
   7  -7   3  159.22   10.22
  -7  -7  -3  178.22   10.50
   7   7   3  185.91   10.49
  -7   7  -3  168.31   10.09
   7   7   3  207.90   13.87
   7   7   3  186.12   10.05
   9  -7   3  131.80    9.39
  -9  -7  -3  106.93    9.52
  -9  -7  -3  147.67    8.66
   9   7   3  137.65    9.40
   9   7   3  171.60   13.82
  -9   7  -3  133.17    9.10
  11  -7   3   71.71    7.56
 -11  -7  -3   83.11    7.45
 -11  -7  -3   94.13    8.78
 -11   7  -3   98.98    8.48
  11   7   3   89.15   10.72
  11   7   3   79.47    7.94
 -13  -7  -3   30.13    6.15
 -13  -7  -3   29.63    5.26
  13  -7   3   23.88    5.45
  13   7   3   25.84    5.67
  13   7   3   31.07    8.47
 -13   7  -3   27.19    5.74
 -15  -7  -3   -4.66    4.51
 -15  -7  -3   -0.10    3.92
  15  -7   3   -3.73    3.90
 -15   7  -3   -1.76    4.08
  15   7   3   -2.12    7.89
  15   7   3    2.80    4.17
  14  -8  -3   17.67    8.06
  14  -8  -3    3.13    4.19
 -14  -8   3   20.48    5.79
  14   8  -3   11.98    5.60
 -14   8   3   19.86    5.15
  14   8  -3   16.14    5.51
  14   8  -3    2.39    6.82
 -14   8   3   24.45    5.10
  12  -8  -3    3.92    4.09
 -12  -8   3    1.80    4.03
  12  -8  -3    0.53    6.49
  12   8  -3    7.76    4.66
  12   8  -3    7.62    6.31
 -12   8   3    3.73    3.83
 -12   8   3    9.07    4.23
  12   8  -3   10.99    4.52
  10  -8  -3   15.95    7.24
 -10  -8   3    8.02    3.99
  10  -8  -3    4.38    3.61
  10   8  -3    8.80    4.71
 -10   8   3    6.79    3.71
  10   8  -3    0.69    3.90
  10   8  -3    9.07    6.17
 -10   8   3    8.12    3.80
  -8  -8   3  122.49    9.08
   8  -8  -3  126.96    8.94
   8  -8  -3  160.90   13.77
  -8   8   3  126.36    8.50
  -8   8   3  130.30    8.47
   8   8  -3  158.93   13.13
   8   8  -3  135.54    9.38
   6  -8  -3   11.77    3.66
   6  -8  -3   10.13    6.84
  -6  -8   3   15.35    4.05
  -6   8   3    9.62    3.40
  -6   8   3   16.87    3.58
   6   8  -3   17.08    6.30
   6   8  -3    4.75    3.67
   4  -8  -3    2.60    4.28
  -4  -8   3    1.66    2.51
   4  -8  -3    0.24    2.88
   4   8  -3   -0.07    3.16
  -4   8   3    2.80    3.13
   4   8  -3    4.68    5.35
  -4   8   3    1.30    2.74
   2  -8  -3   58.16    5.55
   2  -8  -3   55.47    5.77
  -2  -8   3   51.67    5.20
  -2  -8   3   52.10    5.80
   2   8  -3   58.79    8.20
  -2   8   3   59.52    5.81
   2   8  -3   40.55    5.55
  -2   8   3   65.20    5.78
   0  -8   3  122.58    8.28
   0  -8  -3  122.63    8.28
   0  -8   3  127.32    8.08
   0  -8  -3  138.16    7.91
   0   8   3  126.25    8.19
   0   8   3  136.43    8.42
   0   8  -3  134.41    9.09
  -2  -8  -3  100.38    8.36
   2  -8   3   99.64    7.20
   2  -8   3   99.37    7.90
   2   8   3  101.20    7.59
   2   8   3   99.77    7.48
  -2   8  -3  102.53    8.24
   4  -8   3   46.16    5.57
  -4  -8  -3   51.37    6.35
   4   8   3   56.73    6.00
  -4   8  -3   54.86    6.08
   4   8   3   62.90    5.94
  -6  -8  -3   29.99    5.07
   6  -8   3   27.76    5.08
  -6   8  -3   31.70    5.21
   6   8   3   25.59    4.63
   6   8   3   28.45    4.96
  -8  -8  -3   10.19    3.94
   8  -8   3    4.59    3.57
   8   8   3    3.82    3.76
  -8   8  -3    1.31    3.88
   8   8   3    3.52    4.16
 -10  -8  -3   36.66    6.46
  10  -8   3   33.98    6.05
  10   8   3   48.73    6.45
  10   8   3   46.47    7.16
 -10   8  -3   47.10    6.26
  10   8   3   46.47   11.47
 -12  -8  -3   32.86    6.33
  12  -8   3   34.57    6.11
  12   8   3   39.50    6.41
  12   8   3   35.35    8.83
 -12   8  -3   50.57    6.98
  12   8   3   43.11   14.00
  13  -9  -3    0.71    4.72
 -13  -9   3    2.86    4.98
  13   9  -3    3.18    5.35
 -13   9   3    2.57    4.71
  13   9  -3    1.50    7.66
 -11  -9   3    0.60    4.25
  11  -9  -3    6.21    4.53
 -11   9   3    6.48    4.34
  11   9  -3    5.69    4.71
  11   9  -3    8.02    7.06
  -9  -9   3    0.16    4.05
   9  -9  -3    1.69    3.85
   9   9  -3   -3.71    3.85
   9   9  -3   12.23    6.86
  -9   9   3    0.62    3.70
   7  -9  -3    1.38    3.35
  -7  -9   3   -2.42    3.13
   7   9  -3    6.03    6.78
   7   9  -3    3.68    4.20
  -7   9   3    3.52    3.48
  -5  -9   3    3.24    3.59
   5  -9  -3    3.46    3.55
   5   9  -3   10.47    7.16
   5   9  -3    2.48    3.81
  -5   9   3    7.47    3.44
  -3  -9   3   11.91    4.07
   3  -9  -3   12.90    3.84
   3   9  -3   12.26    8.32
   3   9  -3    4.80    3.89
  -3   9   3   13.42    3.93
   1  -9  -3    8.11    3.70
  -1  -9   3    6.43    3.50
   1   9  -3    0.76    3.76
  -1   9   3   -1.25    3.12
   1  -9   3  109.07    7.78
   1  -9   3   94.34    8.01
  -1  -9  -3   89.51    8.15
  -1   9  -3   98.06    8.64
   1   9   3   91.74    8.02
   3  -9   3  100.12    8.24
  -3  -9  -3   76.16    7.82
   3   9   3   81.56    7.55
  -3   9  -3   85.27    8.11
  -5  -9  -3   87.94    8.62
   5  -9   3   94.21    8.65
   5   9   3  101.42    8.77
  -5   9  -3   83.00    8.06
   7  -9   3   72.42    7.81
  -7  -9  -3   58.25    7.24
   7   9   3   55.17    6.86
  -7   9  -3   58.38    7.13
  -9  -9  -3    2.74    3.71
   9  -9   3    3.36    4.63
   9   9   3    1.81    4.31
  -9   9  -3   -1.60    4.16
 -11  -9  -3   14.00    5.84
  11  -9   3   13.50    5.90
 -11   9  -3   13.29    5.37
  11   9   3   14.86    5.73
  10 -10  -3   13.94    5.29
 -10 -10   3    6.82    7.38
  10  10  -3    9.47    9.42
  10  10  -3   18.14    5.97
  -8 -10   3    4.31    4.17
   8 -10  -3    4.61    4.89
   8  10  -3    7.13    9.14
   8  10  -3    9.36    5.29
   6 -10  -3   27.85    6.02
  -6 -10   3   29.06    5.87
   6  10  -3   30.94    6.52
  -6  10   3   25.72    5.97
  -4 -10   3   21.02    5.16
   4 -10  -3   20.48    5.09
  -4  10   3   25.37    5.44
   4  10  -3   20.96    5.48
  -2 -10   3   14.45    4.63
  -2  10   3    3.98    4.08
   2  10  -3    5.12    4.60
   0 -10  -3   12.53    4.46
   0 -10   3   15.68    5.28
   0  10  -3   10.11    4.81
   0  10   3    8.94    4.35
  -2 -10  -3   -1.71    3.52
   2 -10   3    3.89    3.81
   2  10   3    1.31    4.01
  -2  10  -3    4.16    4.62
   4 -10   3   21.94    5.50
  -4 -10  -3   15.89    5.18
  -4  10  -3   18.99    5.40
   4  10   3   20.00    5.08
  -6 -10  -3   18.82    5.47
   6 -10   3   21.83    5.64
   6  10   3   19.36    5.31
  -6  10  -3   18.67    5.72
   8 -10   3   32.38    6.70
  -8 -10  -3   21.21    5.59
   8  10   3   23.11    6.04
  -8  10  -3   33.09    6.43
  -5 -11   3    3.28    4.56
   5 -11  -3    3.38    5.48
   5  11  -3    3.38    5.09
  -3 -11   3    2.62    4.18
   3  11  -3    9.83    5.81
   1  11  -3   -3.67    4.38
  -1 -11  -3   27.75    6.04
  -1  11  -3   19.50    6.09
  -3 -11  -3   15.66    5.64
   3 -11   3   22.51    6.04
  -3  11  -3   19.00    6.14
  22   0  -4    8.06    5.99
  22   0  -4    7.88    4.24
 -22   0   4   10.25    5.15
  20   0  -4    1.65    4.64
 -20   0   4    3.48    4.26
  20   0  -4    1.18    3.26
 -18   0   4   -2.24    2.94
  18   0  -4    1.56    3.51
  18   0  -4    6.16    3.46
  16   0  -4    8.11    3.17
  16   0  -4    6.14    3.17
 -16   0   4   11.47    3.32
  14   0  -4  746.44   29.84
  14   0  -4  769.67   28.68
  14   0  -4  793.48   29.20
 -14   0   4  744.33   29.70
  14   0  -4  757.41   29.48
 -12   0   4    1.66    1.80
 -12   0   4   -0.45    1.85
  12   0  -4   -0.55    1.74
  12   0  -4    1.52    1.74
  12   0  -4   -0.24    1.37
 -12   0   4    2.63    1.55
  10   0  -4   91.76    4.96
  10   0  -4   93.64    4.92
  10   0  -4  103.59    5.09
 -10   0   4   87.21    5.64
 -10   0   4   98.45    5.51
  10   0  -4   98.15    5.28
 -10   0   4  107.47    4.93
   8   0  -4  153.34    6.13
   8   0  -4  155.62    6.13
   8   0  -4  160.93    6.76
  -8   0   4  147.87    7.18
   8   0  -4  165.42    7.05
  -8   0   4  152.90    7.07
  -8   0   4  154.90    6.66
  -6   0   4 6387.58  226.88
  -6   0   4 6541.80  227.03
  -6   0   4 6586.69  226.68
  -6   0   4 6490.69  226.71
  -4   0   4  148.24    6.18
  -4   0   4  148.04    6.15
  -4   0   4  150.98    6.05
  -4   0   4  149.43    6.11
   2   0  -4  696.32   25.20
  -2   0   4  734.33   25.54
  -2   0   4  706.66   25.54
   0   0  -4   13.82    1.65
   0   0  -4   15.24    1.99
   0   0   4   14.23    1.57
  -2   0  -4 1627.36   59.09
   2   0   4 1658.20   59.02
  -2   0  -4 1658.19   59.80
  -2   0  -4 1705.41   59.06
   2   0   4 1725.50   59.13
  -4   0  -4 3265.17  115.87
   4   0   4 3323.91  117.00
   4   0   4 3323.42  116.08
  -4   0  -4 3228.53  116.00
   4   0   4 3296.15  115.90
  -4   0  -4 3400.44  117.04
   6   0   4  679.14   25.33
  -6   0  -4  624.50   24.14
  -6   0  -4  638.55   23.78
   6   0   4  663.79   23.88
   6   0   4  628.44   24.20
  -8   0  -4   41.68    3.30
   8   0   4   39.54    4.61
   8   0   4   42.76    3.88
  -8   0  -4   32.19    3.63
   8   0   4   39.21    3.38
 -10   0  -4    8.97    2.69
  10   0   4    9.19    2.52
  10   0   4   11.91    3.86
 -10   0  -4   10.95    2.31
  10   0   4    7.73    2.25
 -12   0  -4   13.25    3.19
  12   0   4   17.94    4.81
  12   0   4    7.47    2.89
  12   0   4   13.92    3.25
  14   0   4  204.16   12.87
  14   0   4  178.15   10.45
 -14   0  -4  168.61   10.01
  16   0   4    1.91    3.60
 -16   0  -4   11.71    3.80
  16   0   4   12.24    5.83
  18   0   4   23.33    8.41
  18   0   4   25.74    5.78
 -18   0  -4   14.16    4.46
 -21  -1   4   11.23    4.70
  21  -1  -4   16.78    5.64
  21  -1  -4   15.42    4.78
 -21   1   4    2.02    4.29
  21   1  -4    6.63    5.35
  21   1  -4    6.58    4.15
  19  -1  -4  138.77   10.11
 -19  -1   4  140.18    9.58
  19  -1  -4  110.83    9.72
 -19   1   4  118.58    9.80
  19   1  -4  133.23    9.38
  19   1  -4  126.96   10.50
 -17  -1   4   25.27    4.76
  17  -1  -4   27.38    5.06
  17  -1  -4   20.72    4.39
 -17   1   4   27.54    4.53
  17   1  -4   24.61    4.47
  17   1  -4   22.52    4.36
  15  -1  -4   32.54    4.57
  15  -1  -4   43.96    4.45
 -15  -1   4   45.25    5.11
  15  -1  -4   32.50    4.42
 -15   1   4   38.03    4.67
 -15   1   4   33.76    4.70
  15   1  -4   37.42    4.60
  15   1  -4   29.60    4.29
 -13  -1   4  185.58    9.45
  13  -1  -4  181.26    8.96
 -13  -1   4  192.82    8.79
  13  -1  -4  194.89    9.48
  13  -1  -4  211.44    9.57
 -13   1   4  180.21    9.70
  13   1  -4  184.16    9.09
 -13   1   4  180.99    9.39
  13   1  -4  176.87    9.53
  11  -1  -4   11.32    2.37
  11  -1  -4   11.01    2.20
 -11  -1   4   14.31    2.69
  11  -1  -4    8.72    2.34
 -11  -1   4   10.95    2.17
 -11   1   4   13.57    2.59
  11   1  -4   11.38    1.91
  11   1  -4   11.87    2.15
  11   1  -4   13.48    2.61
 -11   1   4   18.46    2.08
 -11   1   4   15.19    2.76
  11   1  -4   11.99    2.14
  11   1  -4   11.32    2.51
   9  -1  -4  935.04   34.19
   9  -1  -4  922.72   33.61
   9  -1  -4  914.93   33.80
  -9  -1   4  938.04   33.81
  -9  -1   4  900.00   34.14
   9  -1  -4  905.52   33.62
   9   1  -4  922.28   34.10
   9   1  -4  932.99   33.49
   9   1  -4  905.66   33.24
   9   1  -4  927.89   33.28
  -9   1   4  959.96   33.02
  -9   1   4  941.27   34.00
  -9   1   4  921.79   34.30
   9   1  -4  931.70   33.31
  -7  -1   4   77.60    4.06
   7  -1  -4   61.20    3.50
  -7  -1   4   77.81    4.21
   7  -1  -4   63.73    4.19
  -7  -1   4   76.79    3.59
   7  -1  -4   71.64    3.63
   7  -1  -4   70.78    3.99
  -7  -1   4   85.23    4.30
   7   1  -4   68.91    2.87
   7   1  -4   69.09    2.89
  -7   1   4   76.30    4.01
  -7   1   4   77.12    3.55
  -7   1   4   68.30    4.25
  -5  -1   4 1803.77   62.38
  -5  -1   4 1791.05   62.58
  -5  -1   4 1777.21   62.13
   5  -1  -4 1751.96   62.05
  -5  -1   4 1809.65   62.57
   5  -1  -4 1629.71   61.90
   5  -1  -4 1789.22   62.08
  -5   1   4 1795.84   62.22
  -5   1   4 1785.76   62.65
  -5   1   4 1745.43   62.47
   3  -1  -4 1104.16   39.27
  -3  -1   4 1134.44   39.29
  -3  -1   4 1114.64   39.42
  -3  -1   4 1128.69   39.58
   3  -1  -4 1107.26   39.24
  -3   1   4 1127.77   39.44
   3   1  -4 1070.77   38.85
  -3   1   4 1084.05   39.46
   1  -1  -4  758.33   27.48
  -1  -1   4  769.17   27.44
  -1  -1   4  775.13   27.55
   1  -1  -4  742.12   27.71
   1   1  -4  761.97   27.69
  -1   1   4  767.97   27.40
  -1   1   4  767.47   27.46
   1   1  -4  778.07   27.45
  -1  -1  -4 1519.72   54.45
   1  -1   4 1549.08   53.90
  -1  -1  -4 1486.37   53.88
   1  -1   4 1511.74   53.75
  -1   1  -4 1539.26   54.47
   1   1   4 1504.71   53.82
  -1   1  -4 1523.25   53.84
   1   1   4 1540.15   53.64
   3  -1   4  246.27   10.91
   3  -1   4  251.17    9.71
  -3  -1  -4  245.39    9.76
  -3  -1  -4  237.90   10.01
   3  -1   4  253.62   10.08
  -3  -1  -4  251.34   11.04
   3   1   4  272.88   10.88
  -3   1  -4  258.97    9.77
   3   1   4  247.72   10.09
  -3   1  -4  248.06   10.12
  -3   1  -4  243.71   10.91
   3   1   4  260.05    9.67
   5  -1   4  839.67   30.52
   5  -1   4  846.39   31.61
  -5  -1  -4  841.40   30.40
   5  -1   4  828.32   30.36
  -5  -1  -4  822.68   30.46
  -5   1  -4  828.66   29.96
   5   1   4  818.83   31.44
   5   1   4  804.21   30.61
  -5   1  -4  833.53   30.63
  -5   1  -4  833.95   31.50
   5   1   4  860.15   29.96
  -7  -1  -4  309.75   12.20
  -7  -1  -4  284.66   12.26
   7  -1   4  296.55   12.24
   7  -1   4  282.04   12.17
   7  -1   4  301.07   13.48
   7   1   4  301.76   11.61
  -7   1  -4  294.26   12.42
   7   1   4  283.48   12.42
  -7   1  -4  301.43   11.55
   7   1   4  302.67   13.49
   9  -1   4    4.02    1.96
  -9  -1  -4    6.51    2.17
  -9  -1  -4    2.32    2.02
   9  -1   4    8.47    2.22
   9  -1   4   -0.53    2.72
  -9   1  -4    6.31    1.82
   9   1   4    9.55    1.89
   9   1   4    8.39    3.27
  -9   1  -4    7.87    2.46
   9   1   4    7.90    2.44
  11  -1   4   27.25    3.73
 -11  -1  -4   31.84    4.15
  11  -1   4   38.28    5.74
  11  -1   4   29.10    3.74
 -11  -1  -4   37.02    3.93
  11   1   4   29.78    4.02
 -11   1  -4   26.58    3.84
  11   1   4   35.84    5.42
 -13  -1  -4   38.47    4.76
  13  -1   4   39.48    5.03
  13  -1   4   44.86    6.58
  13  -1   4   42.65    4.87
 -13   1  -4   35.55    4.69
  13   1   4   56.68    7.34
  13   1   4   39.61    5.04
  15  -1   4   13.24    4.08
  15  -1   4   20.01    6.28
 -15  -1  -4   20.87    4.09
  15   1   4   14.07    5.56
 -15   1  -4   15.70    4.06
  15   1   4   17.50    4.45
 -17  -1  -4    3.55    3.84
  17  -1   4    5.00    3.81
  17  -1   4    9.39    6.33
 -17   1  -4    3.69    3.24
  17   1   4    5.23    4.10
  17   1   4   -3.62    5.42
 -19  -1  -4   23.78    5.39
  19  -1   4   17.98    7.71
  19  -1   4   29.91    6.52
  19   1   4   20.11    6.11
 -19   1  -4   27.73    5.50
  19   1   4   16.06    8.36
  22  -2  -4   19.15    5.89
 -22  -2   4   12.75    4.99
  22  -2  -4   10.87    6.72
  22   2  -4    8.76    4.58
  22   2  -4    7.59    6.25
 -22   2   4    8.45    4.84
 -20  -2   4    3.16    3.56
  20  -2  -4    3.99    4.95
  20  -2  -4   -0.17    3.85
  20   2  -4    9.84    5.13
 -20   2   4    0.09    4.08
  20   2  -4    2.89    3.83
  18  -2  -4    8.06    4.20
 -18  -2   4    6.92    3.33
  18  -2  -4    1.64    4.22
  18   2  -4    6.08    3.54
 -18   2   4   12.25    3.98
 -18   2   4   10.50    3.83
  18   2  -4   -2.70    3.77
 -16  -2   4   15.10    3.79
  16  -2  -4   15.23    3.68
  16  -2  -4   13.52    4.06
 -16   2   4   11.11    3.49
  16   2  -4   11.50    3.68
  16   2  -4   14.06    3.66
 -16   2   4   12.75    3.71
 -14  -2   4   16.39    3.43
  14  -2  -4   17.43    3.79
  14  -2  -4   14.68    3.45
 -14  -2   4   14.41    3.22
  14  -2  -4   14.31    3.18
  14   2  -4   12.43    3.28
  14   2  -4   10.11    3.26
 -14   2   4    6.28    2.61
 -14   2   4   13.96    3.39
  12  -2  -4   42.32    4.69
 -12  -2   4   55.72    4.67
 -12  -2   4   43.80    4.37
  12  -2  -4   58.41    4.70
  12  -2  -4   40.54    4.59
  12   2  -4   45.07    4.55
 -12   2   4   54.87    5.10
 -12   2   4   51.68    4.56
  12   2  -4   51.91    4.61
  10  -2  -4  132.36    7.29
 -10  -2   4  144.38    7.30
  10  -2  -4  152.50    7.71
  10  -2  -4  146.84    7.33
  10   2  -4  144.43    6.30
  10   2  -4  143.32    6.93
 -10   2   4  150.16    7.20
 -10   2   4  150.75    7.63
  10   2  -4  147.57    7.23
  10   2  -4  136.30    7.22
  10   2  -4  148.93    6.09
   8  -2  -4   14.42    2.40
  -8  -2   4   13.45    2.24
   8  -2  -4   18.39    2.65
   8  -2  -4   14.80    2.34
  -8  -2   4   15.95    2.42
  -8  -2   4   16.66    1.66
   8   2  -4   20.32    2.38
   8   2  -4   17.24    2.30
  -8   2   4   15.04    2.38
  -8   2   4   13.56    2.13
   8   2  -4   12.92    1.99
   6  -2  -4    3.06    1.58
   6  -2  -4    3.52    1.57
  -6  -2   4    4.83    1.47
   6  -2  -4    4.95    1.14
   6  -2  -4    4.70    1.46
  -6  -2   4    7.33    1.73
  -6  -2   4    6.87    1.26
   6   2  -4    5.73    1.55
  -6   2   4    6.46    1.40
   6   2  -4    2.10    1.18
   6   2  -4    5.56    1.35
  -6   2   4    5.16    1.66
  -4  -2   4  622.40   22.73
  -4  -2   4  606.36   22.79
   4  -2  -4  602.38   22.89
  -4  -2   4  631.23   22.17
   4  -2  -4  626.50   22.19
   4  -2  -4  610.60   22.79
   4   2  -4  605.99   22.08
  -4   2   4  606.43   22.63
  -4   2   4  617.36   22.06
  -4   2   4  616.76   22.75
   4   2  -4  607.50   22.43
  -2  -2   4  138.07    6.07
   2  -2  -4  147.59    6.13
   2  -2  -4  139.87    6.70
  -2  -2   4  149.90    6.44
   2   2  -4  145.56    6.32
  -2   2   4  140.63    6.35
   2   2  -4  150.27    6.62
  -2   2   4  139.87    6.15
   0  -2   4  609.59   21.93
   0  -2   4  578.68   21.94
   0  -2  -4  604.91   22.64
   0  -2  -4  592.02   22.00
   0   2  -4  611.78   22.10
   0   2   4  581.10   22.02
   0   2  -4  598.39   22.68
   0   2   4  607.42   21.69
  -2  -2  -4   33.55    2.25
   2  -2   4   39.82    3.18
  -2  -2  -4   33.94    2.95
   2  -2   4   33.09    2.51
  -2  -2  -4   36.64    3.67
   2  -2   4   34.72    4.27
  -2   2  -4   36.28    2.94
   2   2   4   34.97    2.28
   2   2   4   37.52    3.10
  -2   2  -4   38.93    4.04
   2   2   4   40.66    3.98
  -2   2  -4   36.89    2.24
   4  -2   4   26.46    2.75
  -4  -2  -4   27.34    3.90
   4  -2   4   23.48    3.52
  -4  -2  -4   27.14    2.83
  -4   2  -4   24.14    2.68
   4   2   4   24.64    2.78
  -4   2  -4   30.29    2.36
   4   2   4   33.89    3.98
   4   2   4   26.23    2.07
  -4   2  -4   36.30    4.15
  -4   2  -4   28.04    2.44
   6  -2   4   12.79    2.19
  -6  -2  -4   14.13    2.49
   6  -2   4   13.95    3.80
   6  -2   4   11.96    2.35
  -6  -2  -4   14.95    2.18
  -6   2  -4   14.99    3.82
   6   2   4   14.68    1.64
   6   2   4    7.96    2.87
  -6   2  -4   12.32    1.76
  -6   2  -4    9.22    2.26
   6   2   4   12.62    2.40
   8  -2   4   81.26    5.33
  -8  -2  -4   92.32    5.63
  -8  -2  -4   83.50    5.29
   8  -2   4   98.02    5.47
   8  -2   4  106.16    7.20
   8   2   4   53.79    5.86
   8   2   4   85.45    5.57
  -8   2  -4   87.74    5.63
  -8   2  -4   88.57    4.48
   8   2   4   92.45    4.38
  10  -2   4   -0.01    1.97
 -10  -2  -4   -1.78    1.81
  10  -2   4   -1.12    2.93
 -10  -2  -4   -1.21    2.07
  10  -2   4   -0.30    1.81
  10   2   4    3.79    3.27
 -10   2  -4    0.23    2.13
  10   2   4    2.62    2.38
  12  -2   4  275.62   13.13
  12  -2   4  293.02   13.45
 -12  -2  -4  280.67   13.38
  12  -2   4  276.93   15.32
 -12  -2  -4  302.00   13.25
 -12   2  -4  281.21   13.57
  12   2   4  312.18   15.65
  12   2   4  283.64   13.79
  14  -2   4   24.29    4.24
  14  -2   4   18.67    4.13
  14  -2   4   16.21    5.94
 -14  -2  -4    9.72    3.42
  14   2   4   20.87    5.93
  14   2   4   12.96    3.97
 -14   2  -4   15.62    3.92
  16  -2   4   13.08    6.39
 -16  -2  -4    4.76    3.42
  16  -2   4    3.06    3.28
  16   2   4    8.49    5.88
 -16   2  -4    8.28    3.63
  16   2   4    9.61    4.25
  18  -2   4    8.60    4.59
 -18  -2  -4    6.86    3.96
  18  -2   4    8.96    7.20
  18   2   4    7.65    4.58
  18   2   4    2.99    6.38
 -18   2  -4    0.43    3.70
 -21  -3   4    2.01    3.69
  21  -3  -4    2.84    5.87
  21  -3  -4    4.90    4.62
  21   3  -4    5.40    4.40
 -21   3   4    3.04    4.49
  21   3  -4   -3.26    5.32
  19  -3  -4   34.78    5.86
 -19  -3   4   23.79    5.01
  19  -3  -4   17.72    5.78
  19   3  -4   20.19    5.74
 -19   3   4   20.80    5.07
  19   3  -4   28.77    5.51
 -19   3   4   18.08    4.78
 -17  -3   4   80.51    7.69
  17  -3  -4   94.19    8.96
  17  -3  -4   85.07    7.40
  17   3  -4   91.72    8.13
 -17   3   4   78.91    7.34
  17   3  -4   89.84    8.15
 -17   3   4   85.77    7.96
  15  -3  -4   74.36    6.59
  15  -3  -4   69.69    7.43
  15  -3  -4   78.83    7.29
 -15  -3   4   66.71    6.53
 -15  -3   4   85.33    6.83
  15   3  -4   79.01    6.84
  15   3  -4   71.94    6.61
 -15   3   4   77.47    6.78
 -15   3   4   80.21    7.20
 -13  -3   4   20.24    3.54
  13  -3  -4   18.41    4.01
  13  -3  -4   19.24    3.82
  13  -3  -4   14.05    3.38
 -13  -3   4   26.03    3.89
 -13   3   4   17.04    3.51
 -13   3   4   18.89    3.28
  13   3  -4   15.76    3.49
  13   3  -4   16.09    3.31
 -11  -3   4  185.39    9.79
  11  -3  -4  204.21   10.37
  11  -3  -4  218.02   10.42
 -11  -3   4  221.92   10.16
  11  -3  -4  194.86    9.77
 -11   3   4  204.11   10.08
  11   3  -4  196.00    9.99
 -11   3   4  207.09    9.71
  11   3  -4  214.09    9.83
   9  -3  -4  838.42   31.75
  -9  -3   4  839.17   31.33
  -9  -3   4  834.48   31.33
   9  -3  -4  832.22   31.25
   9  -3  -4  842.35   31.67
   9   3  -4  845.62   31.07
  -9   3   4  805.38   31.30
  -9   3   4  832.90   30.82
   9   3  -4  811.15   31.01
  -7  -3   4  145.39    7.05
  -7  -3   4  141.51    7.17
   7  -3  -4  139.94    6.93
   7  -3  -4  111.12    7.08
  -7  -3   4  141.38    5.76
   7  -3  -4  150.14    5.82
   7  -3  -4  141.70    7.37
   7   3  -4  134.26    6.43
  -7   3   4  139.74    6.49
   7   3  -4  137.61    6.85
  -7   3   4  140.01    7.04
   5  -3  -4   37.47    2.59
   5  -3  -4   38.64    3.37
   5  -3  -4   42.22    3.76
  -5  -3   4   36.43    3.34
   5  -3  -4   31.61    3.54
  -5  -3   4   29.76    3.24
  -5  -3   4   42.13    2.48
   5   3  -4   35.80    2.59
   5   3  -4   43.68    3.64
  -5   3   4   38.08    3.42
  -5   3   4   34.35    2.65
   5   3  -4   37.96    3.46
   3  -3  -4   38.76    3.80
   3  -3  -4   44.24    3.01
   3  -3  -4   47.59    3.28
   3  -3  -4   49.79    3.51
  -3  -3   4   49.84    2.92
  -3  -3   4   45.12    3.68
   3   3  -4   48.63    3.45
   3   3  -4   50.42    4.16
  -3   3   4   36.61    3.21
   3   3  -4   46.13    2.62
  -3   3   4   45.35    2.66
   1  -3  -4   30.22    2.75
  -1  -3   4   30.79    2.81
  -1  -3   4   30.68    2.76
  -1   3   4   33.49    2.43
   1   3  -4   31.90    2.88
  -1   3   4   29.55    2.55
   1   3  -4   32.90    3.69
  -1   3   4   26.45    2.75
  -1  -3  -4  380.25   13.90
  -1  -3  -4  380.35   15.69
   1  -3   4  380.60   14.42
   1  -3   4  363.64   14.60
  -1  -3  -4  360.32   14.69
   1   3   4  397.21   15.72
   1   3   4  369.81   14.73
  -1   3  -4  356.45   14.69
  -1   3  -4  372.73   15.65
   1   3   4  379.22   14.06
   3  -3   4   23.82    2.29
  -3  -3  -4   26.99    3.85
   3  -3   4   21.92    2.70
  -3  -3  -4   17.36    2.65
  -3  -3  -4   26.94    2.31
   3  -3   4   27.06    3.72
   3   3   4   18.57    2.57
  -3   3  -4   21.44    2.82
   3   3   4   25.35    2.03
  -3   3  -4   23.40    3.76
   3   3   4   29.19    3.90
  -3   3  -4   25.41    2.18
  -5  -3  -4  425.76   16.98
   5  -3   4  421.86   16.97
  -5  -3  -4  414.63   17.93
   5  -3   4  418.60   17.94
  -5  -3  -4  420.49   16.31
   5   3   4  416.59   16.94
  -5   3  -4  413.20   16.16
   5   3   4  433.80   18.08
  -5   3  -4  410.08   16.83
   5   3   4  425.53   15.45
  -5   3  -4  441.11   18.15
  -7  -3  -4    1.83    2.01
  -7  -3  -4    3.94    1.70
   7  -3   4    2.23    2.86
   7  -3   4   -2.74    1.77
   7   3   4    2.18    1.98
  -7   3  -4    4.22    1.58
  -7   3  -4    1.04    1.54
   7   3   4    2.99    2.79
  -7   3  -4    3.68    2.18
  -7   3  -4    3.96    4.32
   9  -3   4  133.09    8.67
   9  -3   4  116.19    6.48
  -9  -3  -4  111.71    6.82
   9  -3   4  113.05    6.96
  -9  -3  -4   99.08    6.32
   9   3   4  106.12    8.06
  -9   3  -4  108.42    6.97
   9   3   4  111.88    7.00
  11  -3   4   20.40    3.64
 -11  -3  -4   22.93    3.69
  11  -3   4   23.82    4.05
  11  -3   4   27.03    5.89
 -11  -3  -4   31.49    4.33
  11   3   4   37.74    6.04
 -11   3  -4   26.20    4.30
  11   3   4   33.39    4.68
  13  -3   4    2.85    2.95
  13  -3   4   -4.32    4.49
  13  -3   4   -0.45    2.74
 -13  -3  -4   -0.13    2.54
 -13  -3  -4   -1.46    2.94
  13   3   4    9.46    5.02
 -13   3  -4    1.89    2.87
  13   3   4    0.58    2.94
  15  -3   4   10.09    3.85
  15  -3   4   10.55    5.74
  15  -3   4    4.16    3.48
 -15  -3  -4    8.34    3.60
  15   3   4    1.66    5.51
 -15   3  -4    9.38    3.69
  15   3   4    6.43    3.83
 -17  -3  -4   -1.05    3.23
  17  -3   4    1.17    5.78
  17  -3   4    0.25    3.83
 -17   3  -4    2.57    3.57
  17   3   4    3.34    6.46
  17   3   4    7.17    4.46
 -20  -4   4    3.00    3.44
  20  -4  -4   -8.83    4.77
  20  -4  -4   -1.22    4.45
 -20   4   4    6.59    4.39
  20   4  -4    2.11    5.32
  20   4  -4   -0.66    3.52
 -20   4   4    2.83    4.11
  18  -4  -4    2.12    4.90
  18  -4  -4   13.55    4.22
 -18  -4   4   -0.63    3.00
 -18   4   4    9.43    4.22
  18   4  -4    4.99    4.81
  18   4  -4    0.30    3.31
 -18   4   4    2.11    3.74
  16  -4  -4   -7.02    3.74
 -16  -4   4    0.37    3.02
 -16  -4   4   -0.32    2.70
  16  -4  -4    3.68    3.20
  16   4  -4    5.12    3.77
 -16   4   4    5.55    3.29
  16   4  -4    1.76    3.30
 -16   4   4    9.09    3.54
  14  -4  -4  187.67   10.96
 -14  -4   4  184.43   10.50
 -14  -4   4  196.19   10.48
  14  -4  -4  205.97   11.81
  14  -4  -4  211.36   10.68
 -14   4   4  188.18   10.68
 -14   4   4  192.70   10.25
  14   4  -4  206.37   11.28
  14   4  -4  190.73   10.53
  12  -4  -4   23.29    4.49
 -12  -4   4   17.00    3.55
  12  -4  -4   18.86    4.04
 -12  -4   4   35.31    4.47
  12  -4  -4   26.58    4.08
 -12   4   4   26.04    3.63
 -12   4   4   16.01    3.41
  12   4  -4   22.16    3.64
  12   4  -4   17.63    3.73
 -10  -4   4   94.99    6.10
  10  -4  -4   83.90    5.94
  10  -4  -4   86.88    7.10
 -10  -4   4   84.07    6.04
  10  -4  -4   78.01    6.31
 -10   4   4   82.54    5.86
  10   4  -4   87.34    6.27
 -10   4   4   95.33    5.48
  10   4  -4   86.29    5.72
  -8  -4   4   17.86    3.16
   8  -4  -4   27.58    4.01
   8  -4  -4   12.63    2.92
  -8  -4   4   16.28    2.80
   8  -4  -4   17.85    2.88
   8   4  -4   17.31    2.61
  -8   4   4   13.85    2.84
  -8   4   4   24.43    2.85
   8   4  -4   21.59    3.36
   6  -4  -4  300.36   10.93
   6  -4  -4  283.51   12.76
   6  -4  -4  282.19   11.84
   6  -4  -4  278.39   12.30
  -6  -4   4  254.92   11.91
  -6  -4   4  275.36   10.56
   6   4  -4  272.62   11.94
  -6   4   4  271.17   11.10
   6   4  -4  259.29   12.27
   6   4  -4  284.34   11.21
  -6   4   4  255.15   11.73
   4  -4  -4  228.32   10.29
  -4  -4   4  218.10   10.12
   4  -4  -4  226.50    9.43
  -4  -4   4  222.27    9.15
   4  -4  -4  223.65    9.86
   4  -4  -4  213.73   10.86
  -4   4   4  227.70    9.25
   4   4  -4  222.63   10.56
   4   4  -4  237.76   10.14
  -4   4   4  236.65   10.04
   4   4  -4  230.26    9.18
  -2  -4   4  101.02    5.21
   2  -4  -4   91.44    6.45
   2  -4  -4   99.98    5.26
   2  -4  -4  110.46    5.67
   2  -4  -4  100.64    5.39
  -2  -4   4  100.82    5.70
   2   4  -4  103.75    6.68
   2   4  -4  102.03    5.79
  -2   4   4  105.26    4.87
  -2   4   4   95.87    5.61
   2   4  -4  107.22    4.69
   0  -4  -4    7.01    1.83
   0  -4  -4    9.93    2.13
   0  -4   4    9.26    2.06
   0  -4  -4   14.91    3.32
   0  -4  -4    6.37    1.65
   0  -4   4    6.70    1.95
   0   4   4    4.38    1.86
   0   4  -4    7.90    1.42
   0   4   4    5.83    3.08
   0   4  -4   12.07    3.16
   0   4  -4    7.69    2.13
   0   4   4    8.49    1.59
   2  -4   4  612.65   22.66
  -2  -4  -4  596.90   22.18
   2  -4   4  592.81   24.32
  -2  -4  -4  621.60   24.43
  -2  -4  -4  579.87   23.20
  -2  -4  -4  608.22   22.44
   2  -4   4  603.61   23.13
  -2   4  -4  604.63   22.09
  -2   4  -4  594.32   23.24
   2   4   4  600.75   22.34
   2   4   4  633.70   24.58
   2   4   4  592.63   23.19
  -2   4  -4  614.43   24.58
   4  -4   4  896.84   34.31
  -4  -4  -4  918.08   35.44
   4  -4   4  949.60   33.36
  -4  -4  -4  868.06   34.31
  -4  -4  -4  914.18   33.54
   4  -4   4  934.35   35.61
  -4  -4  -4  924.64   32.83
  -4  -4  -4  947.12   33.06
   4   4   4  925.78   35.51
  -4   4  -4  919.92   33.34
   4   4   4  904.92   34.31
  -4   4  -4  921.89   35.56
  -4   4  -4  895.03   34.26
   6  -4   4  369.24   16.79
  -6  -4  -4  360.91   14.63
   6  -4   4  350.32   15.37
  -6  -4  -4  368.91   15.53
   6  -4   4  371.94   14.02
   6   4   4  372.39   16.80
  -6   4  -4  368.25   17.00
  -6   4  -4  352.33   14.47
  -6   4  -4  353.65   15.27
   6   4   4  350.33   15.27
  -8  -4  -4  103.10    6.05
  -8  -4  -4   98.24    6.59
   8  -4   4   91.73    6.55
   8  -4   4   94.20    8.47
   8   4   4   97.01    8.32
  -8   4  -4   95.48    6.51
   8   4   4   91.70    6.56
  -8   4  -4   89.19    5.79
 -10  -4  -4   46.11    5.00
  10  -4   4   65.79    7.93
 -10  -4  -4   55.05    5.48
  10  -4   4   46.20    5.46
 -10   4  -4   60.19    5.32
  10   4   4   52.04    5.55
  10   4   4   62.47    7.34
 -10   4  -4   57.05    5.64
 -12  -4  -4  135.30    8.68
 -12  -4  -4  131.54    8.18
  12  -4   4  150.80    8.63
  12  -4   4  151.98   12.58
  12  -4   4  135.33    8.94
  12   4   4  128.79    8.73
  12   4   4  124.89   10.96
 -12   4  -4  131.84    8.96
  14  -4   4   32.06    7.33
  14  -4   4   23.26    4.67
 -14  -4  -4   21.61    4.44
 -14  -4  -4   22.30    5.00
  14  -4   4   20.14    4.43
  14   4   4   20.33    4.67
  14   4   4   20.61    6.90
 -14   4  -4   32.72    5.33
  16  -4   4    1.07    3.67
  16  -4   4    5.46    6.36
  16  -4   4    4.54    4.14
 -16  -4  -4    0.81    3.31
  16   4   4    3.39    3.69
 -16   4  -4   -1.34    3.42
  16   4   4   -1.02    5.78
  18  -4   4    6.71    8.72
  18  -4   4    1.23    4.53
  18  -4   4    5.66    5.48
 -18  -4  -4   -5.93    3.43
  18   4   4   -5.84    4.10
  18   4   4    0.04    6.71
 -18   4  -4    2.46    4.55
 -19  -5   4    7.40    4.14
  19  -5  -4   -4.02    6.13
  19  -5  -4    5.20    5.90
 -19   5   4    5.74    4.24
  19   5  -4    4.59    5.84
 -19   5   4    5.74    4.37
  19   5  -4   -2.51    3.98
  17  -5  -4   59.51    6.87
 -17  -5   4   54.32    6.80
 -17  -5   4   58.01    7.00
  17  -5  -4   70.38    9.40
 -17   5   4   61.98    7.36
  17   5  -4   64.31    7.41
  17   5  -4   62.79    8.02
 -17   5   4   64.76    7.03
 -15  -5   4    6.14    3.53
  15  -5  -4    2.98    4.83
  15  -5  -4    0.50    3.26
 -15  -5   4    4.80    3.10
  15   5  -4    1.82    4.09
  15   5  -4    1.44    3.30
 -15   5   4    1.44    3.14
 -15   5   4    3.53    3.13
  13  -5  -4   18.47    4.05
 -13  -5   4   27.73    4.72
  13  -5  -4   28.81    4.95
 -13  -5   4   25.83    4.37
  13  -5  -4   23.45    5.49
 -13   5   4   23.37    4.21
 -13   5   4   26.64    4.09
  13   5  -4   27.33    5.43
  13   5  -4   24.45    3.97
  11  -5  -4   59.60    6.19
 -11  -5   4   68.04    6.22
  11  -5  -4   66.34    6.15
 -11  -5   4   71.34    6.43
  11  -5  -4   75.72    7.51
 -11   5   4   62.40    5.95
  11   5  -4   78.14    6.18
  11   5  -4   61.70    6.36
 -11   5   4   81.61    6.16
  -9  -5   4   96.92    6.66
   9  -5  -4   98.60    6.86
  -9  -5   4   99.04    6.90
   9  -5  -4  133.46    8.37
   9  -5  -4  117.69    7.58
  -9   5   4  101.77    6.71
   9   5  -4  104.61    7.68
  -9   5   4   99.79    6.19
   9   5  -4  110.06    6.41
   7  -5  -4  191.34    9.94
   7  -5  -4  211.76    9.24
   7  -5  -4  175.58   10.53
  -7  -5   4  184.98    9.69
   7  -5  -4  185.92    9.41
   7   5  -4  189.32   10.34
  -7   5   4  197.44    8.74
   7   5  -4  191.41    9.71
   7   5  -4  195.77    8.96
  -7   5   4  191.57    9.63
   5  -5  -4  203.18    9.86
   5  -5  -4  225.09    9.32
   5  -5  -4  214.00   10.43
  -5  -5   4  200.81   10.11
  -5  -5   4  209.91    8.84
   5  -5  -4  210.19   11.26
   5   5  -4  220.25   10.15
   5   5  -4  227.20   11.10
  -5   5   4  204.94    9.90
   5   5  -4  225.02    9.34
  -5   5   4  208.62    9.19
  -3  -5   4  151.47    7.26
   3  -5  -4  162.86    9.47
   3  -5  -4  152.72    7.60
  -3  -5   4  148.57    8.03
   3  -5  -4  154.42    8.16
   3  -5  -4  154.11    7.76
   3   5  -4  167.49    9.45
   3   5  -4  166.25    8.20
  -3   5   4  162.28    7.24
  -3   5   4  163.22    8.11
   3   5  -4  161.30    7.13
  -1  -5   4  411.30   17.25
  -1  -5   4  430.48   17.01
   1  -5  -4  418.90   17.26
   1  -5  -4  443.79   18.88
   1  -5  -4  432.74   16.90
   1  -5  -4  451.56   17.37
   1   5  -4  419.38   18.68
   1   5  -4  446.78   16.31
  -1   5   4  414.85   17.33
  -1   5   4  439.76   16.54
   1   5  -4  424.44   17.51
   1  -5   4  550.55   22.53
  -1  -5  -4  534.40   20.59
   1  -5   4  525.18   20.65
  -1  -5  -4  514.96   21.06
   1  -5   4  505.50   20.73
  -1  -5  -4  526.63   22.32
  -1  -5  -4  537.03   20.10
   1   5   4  574.38   22.65
   1   5   4  532.31   21.06
  -1   5  -4  541.45   19.88
  -1   5  -4  532.69   22.52
   1   5   4  530.86   20.09
  -1   5  -4  529.16   21.15
   3  -5   4    0.50    2.16
  -3  -5  -4    2.81    1.76
  -3  -5  -4    3.73    3.24
  -3  -5  -4    3.57    2.37
  -3  -5  -4    2.70    1.55
   3  -5   4    2.08    1.74
   3  -5   4   -1.45    3.13
  -3   5  -4    7.96    3.68
   3   5   4    3.65    1.74
  -3   5  -4    1.47    2.32
  -3   5  -4    2.56    1.47
   3   5   4    4.38    3.52
   3   5   4    3.33    2.15
   5  -5   4    2.79    3.65
  -5  -5  -4    3.99    2.46
   5  -5   4    0.81    2.21
  -5  -5  -4    2.23    1.80
   5  -5   4    3.30    1.98
  -5   5  -4    4.36    3.96
   5   5   4    8.77    3.99
   5   5   4    4.34    2.42
  -5   5  -4    4.43    2.48
  -5   5  -4    2.25    1.70
   7  -5   4  106.75    7.03
  -7  -5  -4   91.22    6.92
   7  -5   4  105.40    9.28
  -7  -5  -4   88.22    5.88
   7   5   4   94.34    8.43
  -7   5  -4  108.02    7.05
   7   5   4   82.01    6.49
  -7   5  -4  102.21    5.89
   9  -5   4   31.63    4.80
  -9  -5  -4   48.81    4.87
  -9  -5  -4   35.84    5.11
   9  -5   4   65.38    8.04
  -9   5  -4   45.46    4.71
  -9   5  -4   40.76    5.08
   9   5   4   44.15    5.32
   9   5   4   40.99    6.72
 -11  -5  -4   -4.00    2.76
  11  -5   4    0.58    4.80
  11  -5   4   -1.26    3.02
 -11  -5  -4    3.47    2.79
 -11   5  -4    1.29    3.19
 -11   5  -4    1.40    2.83
  11   5   4    8.62    5.32
  11   5   4    1.64    2.81
  13  -5   4   -4.43    5.33
 -13  -5  -4   -0.34    2.86
  13  -5   4    5.33    3.47
  13  -5   4    5.21    3.49
 -13  -5  -4    0.15    3.81
  13   5   4    0.86    3.31
  13   5   4   -3.48    5.33
 -13   5  -4   -1.21    3.37
  15  -5   4    9.18    4.48
  15  -5   4    8.61    4.16
 -15  -5  -4   18.33    4.64
 -15  -5  -4    8.33    4.73
  15  -5   4    7.97   11.08
  15   5   4    7.83    4.06
  15   5   4    8.49    7.01
 -15   5  -4   10.69    4.45
  17  -5   4   -4.29    4.14
 -17  -5  -4   -1.91    3.83
 -17   5  -4    1.77    4.49
  17   5   4    1.22    7.33
  17   5   4    1.37    4.11
  18  -6  -4    5.85    4.38
 -18  -6   4    6.72    3.97
  18  -6  -4   12.74    6.90
 -18  -6   4    2.66    4.56
 -18   6   4    8.34    4.60
  18   6  -4    8.43    4.31
  18   6  -4    3.52    5.85
 -18   6   4    5.82    4.55
  16  -6  -4   -6.79    5.10
 -16  -6   4    1.03    3.92
  16  -6  -4   -1.72    3.26
 -16  -6   4    4.71    3.37
  16   6  -4    2.33    5.02
  16   6  -4    3.14    3.67
 -16   6   4    2.23    3.72
 -16   6   4   -0.54    3.60
 -14  -6   4   22.40    5.01
  14  -6  -4   21.46    6.55
  14  -6  -4   18.54    4.50
 -14  -6   4   21.22    4.41
 -14   6   4   17.32    4.27
  14   6  -4   13.56    5.15
 -14   6   4   18.87    4.23
  14   6  -4   17.42    4.12
  12  -6  -4   29.09    6.08
  12  -6  -4   28.32    4.92
 -12  -6   4   15.57    4.23
  12  -6  -4   25.21    5.05
 -12  -6   4   23.74    4.48
  12   6  -4   17.55    5.32
 -12   6   4   26.52    4.17
  12   6  -4   28.40    4.56
 -12   6   4   23.40    4.29
  10  -6  -4   44.78    6.52
 -10  -6   4   36.63    5.18
  10  -6  -4   38.30    4.94
  10  -6  -4   33.49    5.16
  10   6  -4   33.99    4.52
  10   6  -4   26.65    5.43
 -10   6   4   43.48    5.01
  10   6  -4   24.47    4.38
 -10   6   4   38.78    4.52
   8  -6  -4   11.07    3.30
  -8  -6   4   15.89    3.83
   8  -6  -4   20.99    4.06
   8  -6  -4   14.56    4.70
   8   6  -4   15.65    3.08
   8   6  -4   24.73    4.86
   8   6  -4   13.08    3.21
  -8   6   4   15.47    2.91
  -8   6   4   15.38    3.25
   6  -6  -4   47.86    4.27
   6  -6  -4   35.10    5.70
   6  -6  -4   41.47    4.62
   6  -6  -4   34.51    4.61
  -6  -6   4   40.77    4.76
  -6   6   4   49.61    4.19
   6   6  -4   40.38    5.43
   6   6  -4   47.77    4.29
   6   6  -4   38.70    4.55
  -6   6   4   32.63    4.22
   4  -6  -4   33.53    3.95
  -4  -6   4   33.33    4.22
   4  -6  -4   42.88    5.92
   4  -6  -4   29.23    4.13
   4  -6  -4   28.61    3.46
  -4  -6   4   33.35    3.29
   4   6  -4   28.72    5.30
   4   6  -4   29.42    3.22
  -4   6   4   26.98    3.71
  -4   6   4   27.41    3.33
   4   6  -4   28.82    3.95
   2  -6  -4   12.23    2.63
  -2  -6   4    7.55    2.64
  -2  -6   4   12.55    2.54
   2  -6  -4    7.23    3.82
   2  -6  -4    6.51    2.46
   2  -6  -4   12.84    2.90
   2   6  -4   17.11    3.26
   2   6  -4    9.27    4.03
  -2   6   4    7.72    2.66
   2   6  -4   10.05    2.18
  -2   6   4    8.74    2.32
   0  -6  -4  207.97   11.87
   0  -6  -4  193.43    9.59
   0  -6   4  187.42    9.52
   0  -6  -4  210.60   10.03
   0  -6   4  200.08    9.51
   0  -6  -4  203.42    9.18
   0   6   4  198.90    9.09
   0   6  -4  201.34    8.87
   0   6  -4  205.71   10.22
   0   6  -4  217.21   12.03
   0   6   4  189.17    9.91
   0   6   4  214.48   12.20
   2  -6   4    2.07    2.04
   2  -6   4    6.26    2.57
  -2  -6  -4    3.98    2.08
  -2  -6  -4    7.00    2.65
  -2  -6  -4    1.68    2.08
   2   6   4    1.43    1.91
   2   6   4    5.94    2.54
  -2   6  -4    2.92    2.37
  -2   6  -4    1.60    2.67
   2   6   4    1.55    3.92
  -2   6  -4    6.84    4.11
   4  -6   4    0.06    2.15
   4  -6   4    0.23    2.49
  -4  -6  -4    5.05    2.80
   4   6   4    1.79    4.12
   4   6   4    5.00    2.67
   4   6   4    1.14    2.07
  -4   6  -4   -4.72    2.23
   6  -6   4   14.28    3.60
  -6  -6  -4   20.16    3.99
  -6  -6  -4   18.05    3.16
  -6   6  -4   28.78    4.26
   6   6   4   25.17    5.80
   6   6   4   26.06    4.20
  -8  -6  -4   31.17    4.16
   8  -6   4   18.07    4.07
  -8  -6  -4   30.52    5.03
   8   6   4   33.00    6.66
   8   6   4   26.45    4.31
  -8   6  -4   23.09    4.35
 -10  -6  -4   36.58    4.63
 -10  -6  -4   37.64    5.71
  10  -6   4   23.34    4.70
  10   6   4   42.00    5.59
  10   6   4   25.47    6.29
 -10   6  -4   35.91    5.31
  12  -6   4   42.00    6.22
 -12  -6  -4   38.71    5.99
 -12  -6  -4   40.50    5.45
  12   6   4   51.21    6.31
 -12   6  -4   37.33    5.68
  12   6   4   33.59    7.82
 -14  -6  -4    4.90    4.43
 -14  -6  -4    6.71    3.76
  14  -6   4    6.50    4.34
  14   6   4    5.47    4.87
  14   6   4   -5.78    5.66
 -14   6  -4    1.25    4.39
 -16  -6  -4   25.14    5.54
 -16  -6  -4   26.93    6.21
  16  -6   4   31.20    5.96
  16   6   4   41.33    6.51
 -16   6  -4   25.56    6.46
  16   6   4   39.14   10.35
  17  -7  -4    1.01    4.07
 -17  -7   4   -0.86    4.40
  17  -7  -4    6.84    7.28
 -17  -7   4    4.73    3.85
 -17   7   4    4.74    4.63
 -17   7   4    1.05    4.48
  17   7  -4    3.06    6.54
  17   7  -4    2.67    4.37
 -15  -7   4   14.90    5.12
  15  -7  -4    8.41    4.01
  15  -7  -4   11.77    7.20
 -15  -7   4   15.20    4.46
  15   7  -4   26.96    7.54
 -15   7   4   22.35    4.72
  15   7  -4   12.46    4.65
 -15   7   4   13.89    4.57
  13  -7  -4    8.10    3.95
  13  -7  -4   26.34    7.18
 -13  -7   4   11.85    4.65
  13   7  -4   19.97    6.11
  13   7  -4   17.02    4.52
 -13   7   4   12.28    4.08
  13   7  -4   17.10    4.99
 -13   7   4   19.54    4.48
 -11  -7   4   16.08    4.29
  11  -7  -4   14.21    4.21
  11  -7  -4   15.75    6.22
 -11   7   4   12.52    3.74
  11   7  -4   19.57    4.28
 -11   7   4   15.90    3.77
  11   7  -4   12.31    5.24
  11   7  -4   15.82    4.51
   9  -7  -4   29.56    5.30
   9  -7  -4   35.45    6.70
   9  -7  -4   21.42    4.46
  -9  -7   4   29.63    4.84
   9   7  -4   34.21    6.42
  -9   7   4   26.99    4.04
   9   7  -4   27.61    4.61
  -9   7   4   34.38    4.76
   9   7  -4   23.21    4.87
   7  -7  -4   32.30    4.63
  -7  -7   4   35.18    5.01
   7  -7  -4   34.01    5.11
   7  -7  -4   42.27    6.69
  -7   7   4   37.70    4.46
  -7   7   4   30.09    4.46
   7   7  -4   29.32    5.84
   7   7  -4   35.61    5.00
   7   7  -4   38.45    4.82
   5  -7  -4  122.49    7.55
   5  -7  -4  126.61    7.95
   5  -7  -4  131.73    8.60
  -5  -7   4  127.50    8.11
   5  -7  -4  155.49   12.00
   5   7  -4  138.20    8.38
  -5   7   4  128.72    7.25
  -5   7   4  107.03    7.50
   5   7  -4  135.49   11.07
   3  -7  -4    0.10    4.22
   3  -7  -4    1.88    2.79
  -3  -7   4    4.21    2.43
  -3  -7   4    3.73    2.67
   3  -7  -4    5.98    2.80
   3  -7  -4    6.61    2.76
  -3   7   4    7.95    2.64
  -3   7   4    1.87    2.61
   3   7  -4    0.30    2.90
   3   7  -4   -1.61    3.74
   1  -7  -4  113.42    7.04
   1  -7  -4   89.83    6.66
  -1  -7   4  101.76    6.50
   1  -7  -4  105.68   10.58
  -1  -7   4   87.54    6.50
   1  -7  -4   96.66    6.40
   1   7  -4  106.46    7.40
  -1   7   4   89.22    6.74
  -1   7   4  100.19    6.23
   1   7  -4   95.57    9.23
  -1  -7  -4    8.02    2.65
  -1  -7  -4    2.45    2.81
   1  -7   4    5.20    2.71
  -1  -7  -4    5.97    2.84
   1  -7   4    1.92    2.71
  -1   7  -4   -2.19    4.66
   1   7   4    3.27    2.58
   1   7   4    2.30    2.88
  -1   7  -4    6.91    3.23
   3  -7   4   52.50    5.11
  -3  -7  -4   49.50    5.58
   3  -7   4   64.13    6.07
   3   7   4   63.75    5.41
  -3   7  -4   47.97    5.69
   3   7   4   48.78    5.44
  -5  -7  -4   17.14    3.91
   5  -7   4   27.06    4.59
   5   7   4   37.92    4.61
  -5   7  -4   22.95    4.51
   5   7   4   14.69    3.81
   5   7   4   30.25    7.39
  -7  -7  -4    8.96    3.66
   7  -7   4   13.07    4.00
   7   7   4   18.39    6.69
   7   7   4    9.84    3.57
  -7   7  -4    7.38    3.59
   7   7   4    9.76    3.58
  -9  -7  -4   13.10    4.40
  -9  -7  -4   23.60    4.30
   9  -7   4   14.29    4.41
   9   7   4   18.31    6.66
  -9   7  -4   17.17    4.51
   9   7   4   18.05    4.36
 -11  -7  -4    3.56    4.12
 -11  -7  -4    6.54    3.99
  11  -7   4    9.04    4.22
  11   7   4   20.57    8.02
  11   7   4   11.02    4.34
 -11   7  -4   13.61    4.61
 -13  -7  -4    9.18    4.80
 -13  -7  -4   17.33    5.70
  13  -7   4   10.21    4.44
  13   7   4   13.61    8.66
 -13   7  -4   14.61    5.11
  13   7   4    5.21    4.05
  16  -8  -4   -6.03    3.67
 -16  -8   4    3.06    5.23
  16  -8  -4    8.24    8.01
  16   8  -4    4.28    5.29
  16   8  -4    9.41    7.38
 -16   8   4    2.63    4.72
 -14  -8   4   -2.10    4.20
  14  -8  -4    3.94    3.94
  14  -8  -4   -1.91    6.39
  14   8  -4   -7.59    5.79
 -14   8   4    3.34    4.09
  14   8  -4    1.41    4.90
  12  -8  -4    4.25    6.26
  12  -8  -4    2.35    3.95
 -12  -8   4    4.70    4.52
  12   8  -4    3.86    4.27
 -12   8   4    2.28    3.37
  12   8  -4    5.35    5.96
  10  -8  -4   24.97    4.88
  10  -8  -4   22.82    6.98
 -10  -8   4   22.17    4.72
  10   8  -4   25.89    5.45
 -10   8   4   18.39    4.25
  10   8  -4   14.20    5.97
   8  -8  -4   -5.76    4.84
   8  -8  -4    4.73    3.52
  -8  -8   4    0.18    3.29
  -8   8   4    4.42    3.03
   8   8  -4   -2.97    3.52
   8   8  -4    9.10    5.96
   6  -8  -4   15.60    4.07
   6  -8  -4   22.08    6.75
  -6  -8   4    8.40    3.67
   6   8  -4   16.48    4.43
   6   8  -4   16.46    6.40
  -6   8   4   15.68    3.64
   4  -8  -4    8.32    3.18
   4  -8  -4    2.16    3.12
   4  -8  -4    3.98    3.50
  -4  -8   4    0.36    3.15
  -4   8   4    1.86    2.82
   4   8  -4    1.58    5.00
   4   8  -4    1.75    3.47
  -2  -8   4    5.99    2.85
  -2  -8   4    0.30    2.83
   2  -8  -4   -3.35    2.75
   2  -8  -4    0.54    3.30
   2  -8  -4    4.17    3.10
   2   8  -4    4.10    3.47
   2   8  -4    4.34    5.21
  -2   8   4    0.54    2.63
   0  -8  -4  146.32    9.10
   0  -8  -4  142.69    9.10
   0  -8   4  145.55    8.79
   0  -8   4  153.87    8.75
   0   8   4  132.54    8.84
   0   8  -4  142.39    9.29
   0   8  -4  144.37   13.21
   2  -8   4   86.90    7.35
   2  -8   4   98.58    7.69
  -2  -8  -4   94.65    8.01
   2   8   4   89.44    7.66
  -2   8  -4   97.00    8.37
   4  -8   4   92.71    7.97
  -4  -8  -4   98.87    8.62
   4   8   4  110.49    8.04
  -4   8  -4  104.64    8.56
  -6  -8  -4   70.75    7.58
   6  -8   4   86.89    8.22
  -6   8  -4   73.64    7.48
   6   8   4   72.78    7.17
  -8  -8  -4    0.38    3.35
   8  -8   4   11.66    4.51
   8   8   4    4.58    3.93
  -8   8  -4   14.19    4.46
 -10  -8  -4   -0.03    4.70
  10  -8   4    2.05    4.30
 -10   8  -4   -0.36    4.02
  10   8   4    3.75    3.91
  12  -8   4    1.53    3.82
 -12  -8  -4    2.19    4.59
 -12   8  -4    5.32    4.92
  12   8   4    6.45    4.42
  13  -9  -4    0.36    4.73
 -13  -9   4    1.33    4.90
  13   9  -4    8.79    5.66
  13   9  -4    6.02    7.23
 -13   9   4    5.14    4.30
 -11  -9   4    0.67    3.84
  11  -9  -4   -4.35    3.64
  11   9  -4    3.73    6.75
  11   9  -4    0.16    4.49
 -11   9   4    4.66    4.23
  -9  -9   4   12.10    4.78
   9  -9  -4   14.92    4.79
   9   9  -4   15.01    5.13
   9   9  -4    8.37    6.87
  -9   9   4   14.60    4.19
   7  -9  -4   72.97    7.43
  -7  -9   4   86.41    8.54
  -7   9   4   87.30    8.01
   7   9  -4   89.25    8.34
   7   9  -4   64.82    9.93
  -5  -9   4   -0.82    3.13
   5  -9  -4    0.67    3.24
   5   9  -4   -0.37    4.08
  -5   9   4    7.28    3.44
   5   9  -4   -2.68    6.14
   3  -9  -4    5.47    3.55
  -3  -9   4   14.83    4.29
   3  -9  -4   13.29    4.21
   3   9  -4   20.11    7.57
  -3   9   4   14.86    4.07
   3   9  -4   13.01    4.51
  -1  -9   4   68.37    6.87
   1  -9  -4   75.98    7.17
  -1  -9   4   70.81    7.18
   1   9  -4   78.11    7.72
  -1   9   4   73.61    7.30
   1  -9   4  109.76    8.86
  -1  -9  -4  116.43    9.26
   1  -9   4   95.36    8.16
   1   9   4  108.98    8.02
  -1   9  -4  103.46    9.02
  -3  -9  -4    7.06    3.75
   3  -9   4    6.91    3.99
  -3   9  -4    8.58    4.51
   3   9   4    7.59    4.06
  -5  -9  -4    5.79    3.85
   5  -9   4    8.90    4.28
  -5   9  -4    6.28    4.32
   5   9   4    6.05    3.87
  -7  -9  -4    7.13    4.20
   7  -9   4   12.57    4.99
  -7   9  -4   10.77    4.79
   7   9   4   13.25    4.45
   9  -9   4   14.13    5.06
  -9  -9  -4    6.27    4.00
  -9   9  -4    5.44    4.53
   9   9   4    3.34    3.94
 -11  -9  -4   -0.10    5.00
  11  -9   4    2.74    5.02
 -11   9  -4   -3.55    4.40
  11   9   4   -0.07    4.10
 -10 -10   4   14.82    4.80
  10 -10  -4   16.16    5.93
  10  10  -4   11.58    5.67
 -10  10   4   16.86    5.72
  10  10  -4   10.37    8.58
   8 -10  -4   -3.27    4.04
  -8 -10   4   -0.02    4.06
  -8  10   4   -0.93    4.33
   8  10  -4    7.43    8.34
   8  10  -4    5.56    4.89
   6 -10  -4   54.02    6.93
  -6 -10   4   55.69    7.56
   6  10  -4   48.32    7.29
  -6  10   4   64.14    7.30
  -4 -10   4   -0.29    3.90
   4 -10  -4    4.88    4.49
  -4  10   4    6.09    4.07
   4  10  -4   -2.43    4.34
  -2 -10   4    6.13    4.06
  -2  10   4    7.19    3.96
   2  10  -4   -0.84    4.13
   0 -10   4   20.07    8.76
   0 -10  -4   18.18    4.79
   0  10  -4   18.27    5.54
   0  10   4   18.74    4.82
   2 -10   4    7.34    4.32
  -2 -10  -4    0.75    3.56
   2  10   4   -3.70    3.26
  -2  10  -4    0.97    4.51
  -4 -10  -4    2.85    4.04
   4 -10   4    3.46    4.34
  -4  10  -4   -2.92    4.57
   4  10   4    0.44    3.70
  -6 -10  -4    7.41    4.62
   6 -10   4    1.75    4.45
   6  10   4    3.05    4.32
  -6  10  -4    3.70    4.70
  -8 -10  -4    8.78    4.36
   8 -10   4    8.91    5.34
   8  10   4    6.37    5.05
  -8  10  -4   14.67    5.63
   5 -11  -4   -3.35    7.13
  -5 -11   4    3.70    4.82
   5  11  -4    1.03    5.19
  -3 -11   4   -6.39    3.53
   3  11  -4   -0.86    4.82
   1  11  -4   -2.56    4.81
  -1  11   4   -1.04    5.48
  -1 -11  -4    2.28    4.69
   1  11   4    3.47    5.51
  -1  11  -4   -4.02    4.83
  22   0  -5   -0.97    5.00
 -22   0   5    2.26    4.18
  22   0  -5    3.08    3.76
  20   0  -5    1.17    3.46
 -20   0   5    0.99    3.64
  20   0  -5    4.40    4.19
  18   0  -5    3.76    3.22
  18   0  -5   -1.20    2.99
 -18   0   5   -1.83    2.90
 -16   0   5    0.33    2.51
  16   0  -5    0.96    2.52
  16   0  -5   -0.02    2.49
 -14   0   5   -0.64    1.95
  14   0  -5    0.55    2.09
  14   0  -5   -0.92    1.77
  14   0  -5    0.61    2.07
 -14   0   5    1.63    2.40
  12   0  -5    0.37    1.70
 -12   0   5   -0.41    1.73
  12   0  -5    0.59    1.55
 -12   0   5   -1.19    1.51
 -12   0   5   -0.91    1.80
  12   0  -5   -0.69    2.60
  12   0  -5   -0.88    1.44
  10   0  -5    0.15    1.34
 -10   0   5   -2.16    1.50
 -10   0   5    1.30    1.40
  10   0  -5    0.69    1.17
  10   0  -5    0.48    1.04
  10   0  -5    1.61    1.32
 -10   0   5    1.95    1.64
  -8   0   5   -2.43    1.31
  -8   0   5   -0.61    1.24
  -8   0   5    1.16    1.24
  -8   0   5    0.86    1.26
  -6   0   5   -0.04    1.24
  -6   0   5    2.19    1.10
  -6   0   5    0.81    1.23
  -6   0   5    0.56    1.09
  -4   0   5    1.50    1.13
  -4   0   5    0.32    0.96
  -4   0   5   -1.49    0.93
  -4   0   5    1.70    1.17
  -2   0   5    0.42    1.09
   2   0  -5    0.87    1.00
  -2   0   5    0.44    1.00
   0   0   5    0.76    1.03
   0   0  -5    1.08    1.16
   0   0  -5    0.63    1.54
   0   0  -5    0.16    1.14
   0   0   5    0.01    0.98
   2   0   5    1.55    1.08
  -2   0  -5    0.55    1.88
  -2   0  -5    0.41    1.15
   2   0   5    1.18    1.03
  -2   0  -5    0.22    1.13
  -4   0  -5   -0.94    1.26
  -4   0  -5    5.13    2.60
   4   0   5   -0.56    1.18
   4   0   5    2.25    1.33
   4   0   5    1.09    2.13
  -4   0  -5    1.45    1.32
  -6   0  -5    2.39    2.94
   6   0   5    1.93    2.61
  -6   0  -5    0.34    1.47
  -6   0  -5    0.22    1.55
   6   0   5   -0.29    1.43
   6   0   5   -1.20    1.25
   8   0   5   -1.32    1.52
  -8   0  -5   -0.08    1.65
  -8   0  -5   -2.40    1.52
   8   0   5   -0.99    1.40
   8   0   5    0.18    2.43
  10   0   5   -1.33    2.04
  10   0   5    7.19    3.52
 -10   0  -5   -0.33    1.99
 -10   0  -5   -1.41    1.90
  10   0   5    0.84    1.90
  12   0   5   -2.18    2.29
  12   0   5   -2.06    3.69
 -12   0  -5    3.41    2.58
 -14   0  -5    3.76    2.91
  14   0   5    6.48    5.03
  14   0   5    4.02    3.31
  16   0   5    3.65    5.91
 -16   0  -5   -0.92    3.13
  16   0   5   -0.03    3.51
  18   0   5    4.65    4.52
 -18   0  -5    2.09    3.66
  18   0   5    7.11    6.94
  21  -1  -5    4.55    3.86
  21  -1  -5    7.13    5.25
 -21  -1   5    8.83    4.35
  21   1  -5    2.76    4.58
  21   1  -5    8.61    3.98
 -21   1   5    6.03    4.31
  19  -1  -5    2.62    3.75
  19  -1  -5   -1.37    3.06
 -19  -1   5    2.04    3.25
  19   1  -5    5.03    3.75
  19   1  -5    3.42    3.23
 -19   1   5   -0.88    3.45
 -17  -1   5   26.13    4.44
  17  -1  -5   19.79    4.16
 -17   1   5   20.27    4.25
 -17   1   5   22.49    4.53
  17   1  -5   18.67    4.07
  17   1  -5   29.99    4.87
  15  -1  -5  206.87   10.49
  15  -1  -5  205.10   10.03
 -15  -1   5  193.34   10.45
  15  -1  -5  201.24   10.40
 -15   1   5  198.27   10.68
 -15   1   5  214.12   10.55
  15   1  -5  210.00   10.75
  15   1  -5  202.70   10.12
  13  -1  -5  246.91   11.08
 -13  -1   5  247.56   11.42
  13  -1  -5  238.43   11.27
  13  -1  -5  238.50   10.80
 -13  -1   5  251.97   10.84
 -13   1   5  239.45   11.56
  13   1  -5  233.57   10.61
  13   1  -5  252.30   10.37
 -13   1   5  230.67   11.11
  13   1  -5  266.29   10.86
  13   1  -5  220.38   11.32
  11  -1  -5   93.84    5.69
 -11  -1   5   91.79    5.42
  11  -1  -5   90.97    5.20
  11  -1  -5   97.21    5.50
  11  -1  -5   94.14    5.40
 -11  -1   5   91.17    5.66
  11   1  -5   94.72    4.87
 -11   1   5   91.52    5.85
  11   1  -5   93.67    4.95
  11   1  -5   99.21    4.94
  11   1  -5   92.33    5.72
  11   1  -5   97.10    5.16
 -11   1   5  106.40    4.75
 -11   1   5  108.05    5.79
   9  -1  -5  602.84   22.64
  -9  -1   5  579.67   22.37
   9  -1  -5  585.59   22.22
   9  -1  -5  585.36   21.65
  -9  -1   5  592.18   22.21
   9  -1  -5  603.18   21.65
  -9  -1   5  609.96   21.71
  -9  -1   5  568.05   22.42
  -9   1   5  594.79   22.63
   9   1  -5  559.81   21.05
   9   1  -5  590.50   21.11
  -9   1   5  578.17   22.18
  -9   1   5  609.91   21.52
  -7  -1   5  344.41   13.40
   7  -1  -5  328.68   12.46
  -7  -1   5  339.53   12.86
   7  -1  -5  343.23   12.47
  -7  -1   5  335.10   13.26
  -7  -1   5  324.23   13.27
  -7   1   5  341.68   13.34
  -7   1   5  332.38   13.08
  -7   1   5  351.07   13.55
  -7   1   5  353.15   12.80
  -5  -1   5  262.19   10.69
   5  -1  -5  263.78    9.86
   5  -1  -5  266.28   10.25
  -5  -1   5  274.69   10.59
  -5  -1   5  263.85   10.30
   5  -1  -5  261.29    9.90
  -5  -1   5  267.45   10.31
  -5   1   5  266.37   10.65
  -5   1   5  276.32   10.15
   3  -1  -5   78.59    3.82
  -3  -1   5   82.14    3.91
  -3  -1   5   78.76    4.18
   3  -1  -5   78.03    3.91
  -3   1   5   79.65    4.01
  -3   1   5   81.90    4.01
   3   1  -5   84.85    3.98
   3   1  -5   78.07    3.59
   1  -1  -5   92.00    4.32
  -1  -1   5   90.45    4.37
   1  -1  -5   90.31    4.66
  -1  -1   5   85.30    4.26
   1   1  -5   85.97    4.61
  -1   1   5   81.86    4.22
  -1   1   5   88.71    4.21
   1   1  -5   90.28    4.25
  -1  -1  -5   21.01    2.27
  -1  -1  -5   22.84    2.78
   1  -1   5   23.61    2.28
   1   1   5   27.00    2.20
  -1   1  -5   19.99    2.10
  -1   1  -5   22.34    2.17
  -1   1  -5   23.39    2.84
   1   1   5   22.41    2.20
   3  -1   5  695.01   25.78
  -3  -1  -5  714.77   26.72
  -3  -1  -5  696.34   25.77
   3  -1   5  723.46   26.72
   3  -1   5  679.53   25.33
  -3  -1  -5  709.90   25.37
  -3   1  -5  698.49   26.66
   3   1   5  660.83   26.46
   3   1   5  719.49   25.39
  -3   1  -5  708.29   25.76
  -3   1  -5  692.25   25.44
   3   1   5  690.01   25.73
   5  -1   5  293.35   11.83
  -5  -1  -5  301.60   11.93
  -5  -1  -5  282.87   12.02
   5  -1   5  302.85   12.12
   5  -1   5  301.15   13.23
  -5  -1  -5  289.92   13.29
   5   1   5  302.79   12.20
  -5   1  -5  298.33   11.60
   5   1   5  300.95   11.57
   5   1   5  311.41   13.31
  -5   1  -5  282.78   12.14
  -5   1  -5  287.78   13.21
   7  -1   5   36.22    3.43
  -7  -1  -5   30.69    3.28
   7  -1   5   31.61    4.58
  -7  -1  -5   37.61    5.78
   7  -1   5   27.64    3.10
  -7  -1  -5   31.07    3.20
   7   1   5   34.03    2.86
  -7   1  -5   36.23    3.05
   7   1   5   29.64    3.40
   7   1   5   40.52    4.80
  -7   1  -5   33.31    4.99
  -7   1  -5   31.31    3.52
   9  -1   5   26.68    3.40
  -9  -1  -5   31.66    3.73
  -9  -1  -5   35.31    3.70
   9  -1   5   21.56    4.37
   9  -1   5   31.84    3.54
   9   1   5   25.57    2.83
   9   1   5   23.32    3.46
  -9   1  -5   21.92    3.42
  -9   1  -5   32.13    3.11
   9   1   5   32.74    5.02
  11  -1   5   36.86    4.42
 -11  -1  -5   31.16    4.25
  11  -1   5   45.69    4.57
 -11  -1  -5   42.98    4.33
  11  -1   5   35.92    5.86
  11   1   5   36.66    5.78
  11   1   5   33.39    4.43
 -11   1  -5   40.98    4.68
 -13  -1  -5    0.02    2.55
  13  -1   5   -0.97    4.65
  13  -1   5    4.75    3.10
  13  -1   5    2.73    2.96
 -13   1  -5    1.04    2.76
  13   1   5    1.71    3.05
  13   1   5    6.39    4.64
  15  -1   5   34.98    5.43
 -15  -1  -5   40.12    5.43
  15  -1   5   45.98    7.91
  15   1   5   48.11    7.63
  15   1   5   44.91    5.93
 -15   1  -5   24.08    4.46
  17  -1   5    6.43    4.30
  17  -1   5   12.34    7.05
 -17  -1  -5    6.25    3.94
  17   1   5   10.33    7.38
  17   1   5    8.83    4.65
 -17   1  -5    4.85    3.70
 -19  -1  -5    1.93    3.87
  19  -1   5    2.91    4.79
  19  -1   5    0.79    7.73
 -19   1  -5    0.89    3.61
  19   1   5   -4.58    7.33
  19   1   5    0.83    4.83
 -22  -2   5    4.11    4.67
  22  -2  -5   -3.09    5.09
  22  -2  -5    3.75    4.77
 -22   2   5    1.94    4.55
  22   2  -5    0.10    4.41
  22   2  -5   10.11    5.72
  20  -2  -5    5.71    4.96
 -20  -2   5    2.14    3.70
  20  -2  -5    6.24    4.22
  20   2  -5    2.60    3.96
 -20   2   5   10.81    4.20
  20   2  -5    5.07    3.60
 -18  -2   5  119.42    8.56
  18  -2  -5  117.55    8.45
  18  -2  -5  109.95    9.38
 -18   2   5   98.75    8.96
 -18   2   5  107.65    8.21
  18   2  -5  129.90    9.03
  18   2  -5  111.18    9.23
  16  -2  -5  149.00    8.30
  16  -2  -5  126.03    8.50
  16  -2  -5  118.07    8.42
 -16  -2   5  123.31    8.24
  16   2  -5  122.40    8.08
 -16   2   5  126.55    8.08
 -16   2   5  122.97    8.60
  16   2  -5  116.97    8.07
  14  -2  -5  110.17    7.56
 -14  -2   5  121.99    7.05
 -14  -2   5  123.35    7.53
  14  -2  -5  123.97    7.23
  14  -2  -5  114.82    7.53
 -14   2   5  114.81    7.16
  14   2  -5  119.50    7.16
  14   2  -5  116.40    7.46
 -14   2   5  117.40    7.68
  12  -2  -5   19.41    3.00
  12  -2  -5   19.16    3.20
 -12  -2   5   19.02    2.97
  12  -2  -5    6.86    2.67
 -12   2   5   17.37    2.95
  12   2  -5   14.43    2.55
 -12   2   5   11.18    2.85
  12   2  -5    9.21    2.52
  10  -2  -5  141.59    8.01
 -10  -2   5  141.14    6.06
  10  -2  -5  137.65    7.02
  10  -2  -5  149.49    5.94
 -10  -2   5  128.84    7.16
  10  -2  -5  135.69    7.48
 -10  -2   5  131.39    6.97
  10  -2  -5  137.25    7.04
  10   2  -5  133.18    6.96
  10   2  -5  146.51    6.53
 -10   2   5  130.21    7.27
  10   2  -5  133.67    6.53
 -10   2   5  152.32    7.05
  -8  -2   5  134.49    6.55
   8  -2  -5  126.19    6.74
   8  -2  -5  124.44    6.33
   8  -2  -5  122.37    6.36
  -8  -2   5  128.53    5.51
   8  -2  -5  131.89    5.45
  -8  -2   5  136.01    6.59
   8   2  -5  133.95    6.21
  -8   2   5  128.31    6.64
  -8   2   5  137.79    6.19
   8   2  -5  131.91    5.76
   8   2  -5  120.00    5.61
   6  -2  -5   38.49    3.49
   6  -2  -5   35.40    2.38
  -6  -2   5   32.35    3.00
   6  -2  -5   37.29    3.19
  -6  -2   5   35.56    3.20
  -6  -2   5   38.52    2.56
   6  -2  -5   39.49    3.14
   6   2  -5   39.61    2.68
   6   2  -5   36.09    2.41
  -6   2   5   39.53    2.62
  -6   2   5   34.50    3.17
   6   2  -5   32.89    2.47
  -4  -2   5  651.65   23.94
   4  -2  -5  666.37   24.46
  -4  -2   5  633.71   24.45
   4  -2  -5  679.86   24.04
   4   2  -5  674.11   23.87
   4   2  -5  649.31   24.41
  -4   2   5  679.64   24.47
   4   2  -5  647.09   24.08
  -2  -2   5  122.38    5.47
   2  -2  -5  119.30    5.50
  -2  -2   5  124.01    5.74
   2  -2  -5  124.57    6.11
  -2   2   5  120.63    5.48
   2   2  -5  120.59    5.97
  -2   2   5  120.84    5.59
   2   2  -5  113.25    5.60
   0  -2   5  699.01   25.71
   0  -2   5  692.58   25.65
   0  -2  -5  690.47   26.38
   0  -2  -5  705.62   25.82
   0   2   5  692.84   25.39
   0   2   5  726.71   25.81
   0   2  -5  691.75   26.34
   0   2  -5  705.37   25.80
  -2  -2  -5  162.06    8.56
  -2  -2  -5  182.32    7.18
   2  -2   5  186.34    7.59
  -2  -2  -5  172.91    7.95
   2  -2   5  186.10    7.97
   2  -2   5  178.82    7.07
  -2   2  -5  173.42    8.70
  -2   2  -5  177.44    7.94
   2   2   5  179.89    7.92
   2   2   5  190.15    8.98
   2   2   5  185.71    7.37
   4  -2   5 1102.60   41.28
  -4  -2  -5 1130.60   39.78
  -4  -2  -5 1082.65   40.32
   4  -2   5 1070.71   40.32
  -4  -2  -5 1107.48   41.31
   4  -2   5 1094.46   39.62
  -4   2  -5 1120.46   39.59
  -4   2  -5 1133.27   41.42
  -4   2  -5 1097.92   40.32
   4   2   5 1100.90   40.39
   4   2   5 1122.72   39.43
   6  -2   5  151.67    9.02
  -6  -2  -5  151.72    7.27
   6  -2   5  134.64    7.48
  -6  -2  -5  152.36    7.62
  -6  -2  -5  152.46    9.10
   6  -2   5  162.10    7.28
  -6   2  -5  165.13    7.91
  -6   2  -5  170.71    9.12
   6   2   5  160.14    6.69
  -6   2  -5  162.83    6.82
   6   2   5  157.52    7.82
   6   2   5  163.43    8.92
   8  -2   5  310.00   12.80
  -8  -2  -5  307.93   13.01
   8  -2   5  282.48   12.95
  -8  -2  -5  299.09   12.80
   8  -2   5  325.57   14.82
   8   2   5  306.32   14.67
  -8   2  -5  302.18   11.89
   8   2   5  297.36   13.25
   8   2   5  301.84   11.84
  -8   2  -5  280.72   13.04
 -10  -2  -5  123.92    7.58
  10  -2   5  135.55    7.83
 -10  -2  -5  143.06    7.83
  10  -2   5  146.15    9.86
  10  -2   5  135.19    7.64
 -10   2  -5  143.86    8.10
  10   2   5  134.74    8.06
  10   2   5  137.07    9.60
 -12  -2  -5  113.93    7.34
 -12  -2  -5  110.74    7.56
  12  -2   5  110.30    7.57
  12  -2   5  131.80   10.96
  12  -2   5  120.20    7.63
 -12   2  -5  100.86    7.42
  12   2   5  106.00    7.71
  12   2   5  114.92    9.80
 -14  -2  -5   78.11    7.08
  14  -2   5   71.93    9.45
  14  -2   5   71.42    6.81
  14  -2   5   75.73    7.40
  14   2   5   83.42    9.66
 -14   2  -5   73.46    7.04
  14   2   5   65.25    7.02
 -16  -2  -5    7.38    3.79
  16  -2   5    8.94    6.24
  16  -2   5   18.10    4.48
  16   2   5    8.55    4.89
 -16   2  -5   13.22    4.24
  16   2   5    4.85    5.51
  18  -2   5    6.43    7.68
  18  -2   5    3.12    4.34
 -18  -2  -5   -5.91    3.18
  18   2   5   -3.75    3.95
  18   2   5   -0.29    6.84
 -18   2  -5    2.82    3.86
  21  -3  -5   18.71    5.27
 -21  -3   5   17.64    5.33
  21  -3  -5   21.83    6.84
  21   3  -5   29.97    6.76
  21   3  -5   25.31    5.72
 -21   3   5   17.23    5.54
  19  -3  -5   -3.19    3.25
  19  -3  -5   -0.73    4.20
 -19  -3   5   -0.61    3.38
  19   3  -5   -1.45    3.43
  19   3  -5   -1.87    3.88
 -19   3   5    0.53    3.32
 -19   3   5   -0.57    3.42
 -17  -3   5   84.87    7.86
  17  -3  -5   91.69    8.83
  17  -3  -5  105.33    8.26
 -17  -3   5  102.99    8.62
  17   3  -5  113.96    8.06
 -17   3   5  101.66    8.31
  17   3  -5   91.41    8.00
 -17   3   5  102.07    8.73
 -15  -3   5   78.82    7.00
  15  -3  -5  100.98    7.53
  15  -3  -5   87.77    7.75
  15  -3  -5   88.20    7.01
 -15  -3   5   89.84    6.73
  15   3  -5   73.84    6.71
 -15   3   5   88.88    7.15
 -15   3   5   89.36    7.48
  15   3  -5   85.93    7.10
  13  -3  -5   76.29    6.74
  13  -3  -5   86.11    6.71
 -13  -3   5   76.72    6.34
  13  -3  -5   70.77    6.02
 -13  -3   5   71.46    6.06
  13   3  -5   84.84    6.43
 -13   3   5   70.19    6.45
  13   3  -5   74.60    6.20
 -13   3   5   82.52    5.76
  11  -3  -5   72.44    6.23
  11  -3  -5   71.01    5.65
 -11  -3   5   71.90    5.87
  11  -3  -5   62.06    5.54
 -11  -3   5   68.02    5.52
 -11   3   5   61.48    5.41
 -11   3   5   66.85    4.64
  11   3  -5   61.61    5.09
  11   3  -5   64.83    4.74
  -9  -3   5  480.15   19.47
   9  -3  -5  482.84   19.58
  -9  -3   5  498.29   17.87
   9  -3  -5  486.41   19.38
   9  -3  -5  470.04   19.95
   9  -3  -5  526.01   17.96
  -9  -3   5  488.74   19.58
   9   3  -5  456.95   18.88
   9   3  -5  498.41   19.30
  -9   3   5  481.68   19.54
   9   3  -5  493.10   18.99
  -9   3   5  492.28   18.83
   7  -3  -5   10.08    1.55
   7  -3  -5    6.10    2.07
  -7  -3   5    4.86    2.03
  -7  -3   5    5.42    1.92
   7  -3  -5    4.30    2.17
  -7  -3   5    8.76    1.53
   7  -3  -5    4.49    2.17
  -7   3   5    8.68    1.83
   7   3  -5    7.42    1.62
   7   3  -5    3.52    1.81
  -7   3   5    3.88    1.87
   5  -3  -5  188.79    7.74
   5  -3  -5  189.34    8.68
   5  -3  -5  188.05    8.39
  -5  -3   5  186.88    8.57
  -5  -3   5  186.54    7.63
   5  -3  -5  188.27    8.83
  -5   3   5  183.66    8.43
   5   3  -5  186.61    7.57
   5   3  -5  180.77    8.47
   5   3  -5  178.00    8.39
  -5   3   5  194.87    7.60
  -3  -3   5    6.57    1.48
   3  -3  -5    6.68    1.63
  -3  -3   5    4.18    1.71
   3   3  -5    1.83    1.88
  -3   3   5    2.71    1.51
   3   3  -5    6.97    1.86
  -3   3   5    2.97    1.55
   1  -3  -5   94.62    5.03
  -1  -3   5   91.43    5.02
  -1  -3   5  100.29    4.90
   1  -3  -5   88.38    5.83
   1   3  -5   88.14    5.12
  -1   3   5   92.26    4.67
   1   3  -5   94.55    5.70
   1  -3   5   86.93    4.99
  -1  -3  -5   90.91    4.01
  -1  -3  -5   92.88    6.13
   1  -3   5   79.13    4.59
  -1  -3  -5   84.51    4.94
   1   3   5   87.07    5.03
   1   3   5   93.12    4.36
  -1   3  -5   84.48    6.01
   1   3   5   87.97    6.00
  -1   3  -5   85.09    5.05
   3  -3   5  503.87   20.74
  -3  -3  -5  568.93   21.99
   3  -3   5  526.03   20.10
  -3  -3  -5  511.22   20.78
   3  -3   5  528.00   21.69
  -3  -3  -5  560.02   20.03
   3   3   5  547.21   21.85
   3   3   5  547.10   19.76
  -3   3  -5  550.46   19.83
  -3   3  -5  552.60   22.01
  -3   3  -5  528.41   20.84
   3   3   5  550.32   20.87
  -5  -3  -5   49.14    4.36
  -5  -3  -5   47.66    3.44
   5  -3   5   51.61    4.56
  -5  -3  -5   60.03    5.84
   5  -3   5   46.57    5.29
   5   3   5   54.37    5.44
  -5   3  -5   45.59    3.35
  -5   3  -5   38.76    4.94
  -5   3  -5   53.48    3.35
   5   3   5   49.94    2.99
   5   3   5   48.16    4.35
  -5   3  -5   43.49    4.21
  -7  -3  -5  316.56   13.97
  -7  -3  -5  332.63   13.41
   7  -3   5  314.61   13.21
   7  -3   5  317.14   13.86
   7  -3   5  326.45   15.48
   7   3   5  300.55   13.87
   7   3   5  335.32   15.46
  -7   3  -5  332.28   12.54
  -7   3  -5  313.99   13.95
   9  -3   5   52.92    6.67
   9  -3   5   50.20    4.57
   9  -3   5   44.61    4.86
  -9  -3  -5   50.62    4.70
  -9  -3  -5   42.01    4.78
   9   3   5   47.12    6.46
   9   3   5   38.46    4.52
  -9   3  -5   52.38    5.13
 -11  -3  -5    6.75    3.03
  11  -3   5    4.05    2.92
  11  -3   5   17.65    5.17
  11  -3   5    7.46    2.78
 -11  -3  -5    7.37    2.92
  11   3   5    5.34    3.02
 -11   3  -5    4.82    3.00
  11   3   5    6.21    4.35
 -13  -3  -5   20.02    4.16
  13  -3   5   16.07    5.38
  13  -3   5   22.08    4.16
 -13  -3  -5   19.10    3.78
  13  -3   5   18.32    3.88
 -13   3  -5   24.07    4.34
  13   3   5   11.70    5.59
  13   3   5   15.03    4.18
  15  -3   5   33.99    5.41
  15  -3   5   31.18    5.09
 -15  -3  -5   27.77    4.99
  15  -3   5   21.54    6.81
 -15   3  -5   30.26    5.04
  15   3   5   21.09    7.16
  15   3   5   18.91    4.99
 -17  -3  -5   11.73    4.48
  17  -3   5    9.63    4.58
  17  -3   5   10.70    7.74
  17   3   5    9.65    7.17
  17   3   5    9.90    5.23
 -17   3  -5   12.09    4.45
 -20  -4   5    1.54    3.77
  20  -4  -5    0.22    4.61
  20  -4  -5    3.73    5.33
 -20   4   5    5.83    3.97
  20   4  -5   -2.55    4.06
 -20   4   5    0.55    4.03
  20   4  -5    1.48    5.34
 -18  -4   5   21.49    5.32
  18  -4  -5   10.84    4.29
 -18  -4   5   12.22    4.28
  18  -4  -5   17.29    5.82
 -18   4   5   16.13    4.48
  18   4  -5   21.52    5.53
 -18   4   5   21.32    4.87
  18   4  -5   13.41    4.36
 -16  -4   5    4.84    3.26
 -16  -4   5   18.04    4.20
  16  -4  -5   15.78    4.59
  16  -4  -5   14.41    3.83
  16  -4  -5    7.97    4.69
 -16   4   5   18.84    4.30
 -16   4   5   15.13    4.26
  16   4  -5   20.32    4.34
  16   4  -5   12.71    4.33
  14  -4  -5  219.15   12.77
  14  -4  -5  222.33   12.32
 -14  -4   5  252.07   12.29
 -14  -4   5  238.87   12.08
  14  -4  -5  241.59   11.94
  14   4  -5  240.46   11.83
 -14   4   5  244.34   11.50
  14   4  -5  218.10   11.90
 -14   4   5  230.05   12.11
  12  -4  -5   64.28    6.32
  12  -4  -5   63.07    5.94
 -12  -4   5   65.71    6.03
  12  -4  -5   69.91    6.73
 -12  -4   5   74.34    6.41
 -12   4   5   69.18    5.53
  12   4  -5   57.01    5.29
 -12   4   5   66.51    6.17
  12   4  -5   64.67    6.05
 -10  -4   5   11.42    2.96
  10  -4  -5    8.63    2.85
  10  -4  -5   14.43    2.94
  10  -4  -5   13.48    3.48
 -10  -4   5   14.99    2.89
 -10   4   5    6.91    2.52
 -10   4   5   16.96    2.68
  10   4  -5   11.81    2.55
  10   4  -5    5.90    2.73
  -8  -4   5  122.14    7.18
   8  -4  -5  123.01    7.54
   8  -4  -5  132.42    7.93
  -8  -4   5  133.08    7.45
   8  -4  -5  142.29    6.09
   8  -4  -5  121.55    7.08
  -8  -4   5  138.83    5.81
   8   4  -5  127.92    7.40
  -8   4   5  133.38    6.50
   8   4  -5  141.61    6.68
  -8   4   5  129.69    7.22
  -6  -4   5   24.31    3.27
   6  -4  -5   27.23    3.55
   6  -4  -5   19.06    3.51
  -6  -4   5   27.25    2.34
   6  -4  -5   29.09    2.73
   6  -4  -5   26.40    3.15
  -6   4   5   20.04    2.92
   6   4  -5   27.29    2.57
  -6   4   5   22.20    2.43
   6   4  -5   24.19    3.22
   6   4  -5   21.88    3.37
   4  -4  -5   59.28    3.97
  -4  -4   5   57.25    3.72
  -4  -4   5   63.80    4.55
   4  -4  -5   57.97    4.18
   4  -4  -5   51.18    5.16
   4  -4  -5   58.19    4.43
   4   4  -5   57.63    3.39
   4   4  -5   59.13    5.28
  -4   4   5   62.15    3.50
   4   4  -5   51.10    4.34
  -4   4   5   58.02    4.32
   2  -4  -5   30.31    3.20
  -2  -4   5   37.68    3.18
  -2  -4   5   28.47    3.29
   2  -4  -5   34.98    3.27
   2  -4  -5   39.82    3.61
   2  -4  -5   35.01    4.49
  -2   4   5   34.45    2.59
   2   4  -5   30.41    3.45
   2   4  -5   30.83    4.14
   2   4  -5   35.09    2.44
  -2   4   5   29.41    3.28
   0  -4  -5  388.69   14.95
   0  -4   5  384.61   15.40
   0  -4  -5  384.94   15.58
   0  -4   5  362.90   15.27
   0  -4  -5  419.94   16.96
   0  -4  -5  392.62   15.29
   0   4   5  385.56   14.48
   0   4   5  369.31   15.50
   0   4   5  387.25   16.82
   0   4  -5  387.45   16.71
   0   4  -5  385.62   15.72
   0   4  -5  384.80   14.21
   2  -4   5   15.72    3.70
  -2  -4  -5   15.80    3.48
  -2  -4  -5    6.93    2.18
   2  -4   5   13.93    2.53
  -2  -4  -5   11.74    1.83
   2  -4   5   10.15    1.98
  -2   4  -5    8.01    1.50
  -2   4  -5    9.15    3.51
   2   4   5   12.20    1.81
  -2   4  -5    8.97    2.48
   2   4   5   11.15    3.57
   2   4   5    8.91    2.32
  -4  -4  -5  582.24   23.65
   4  -4   5  602.08   22.59
  -4  -4  -5  633.07   25.05
  -4  -4  -5  609.29   22.68
   4  -4   5  594.75   23.54
   4  -4   5  610.53   24.91
  -4   4  -5  574.35   24.83
  -4   4  -5  622.91   22.51
  -4   4  -5  604.07   23.63
   4   4   5  597.16   23.64
   4   4   5  614.71   22.14
  -6  -4  -5   66.35    4.67
  -6  -4  -5   73.64    5.53
   6  -4   5   69.47    5.63
   6  -4   5   84.09    7.50
  -6   4  -5   67.09    4.55
  -6   4  -5   63.05    5.45
  -6   4  -5   78.47    4.38
  -6   4  -5   70.74    7.38
   6   4   5   61.84    6.61
   6   4   5   64.31    5.47
   8  -4   5   10.85    4.63
  -8  -4  -5   12.19    2.79
   8  -4   5   15.68    3.28
  -8  -4  -5    8.33    3.07
   8   4   5   17.08    4.48
  -8   4  -5   10.42    3.16
   8   4   5   14.46    3.36
  -8   4  -5   12.62    2.77
  10  -4   5   22.35    4.03
 -10  -4  -5   29.57    4.10
  10  -4   5   25.41    3.81
  10  -4   5   33.31    6.58
 -10  -4  -5   27.14    4.48
  10   4   5   24.12    5.52
  10   4   5   24.61    4.37
 -10   4  -5   22.55    4.20
 -12  -4  -5   42.59    5.74
  12  -4   5   49.64    5.88
  12  -4   5   68.95    8.83
  12  -4   5   61.06    5.97
 -12  -4  -5   49.21    5.52
 -12   4  -5   48.18    5.79
  12   4   5   51.29    7.59
  12   4   5   44.78    5.89
  14  -4   5   35.76    8.46
 -14  -4  -5   39.85    5.49
  14  -4   5   29.75    5.31
 -14  -4  -5   35.39    5.71
  14  -4   5   38.43    5.69
  14   4   5   25.18    5.17
 -14   4  -5   32.89    5.57
  14   4   5   24.86    7.30
  16  -4   5    7.40    4.47
 -16  -4  -5    6.18    4.03
  16  -4   5    5.50    4.18
  16   4   5    6.72    6.82
  16   4   5   14.80    5.18
 -16   4  -5    3.71    3.93
  19  -5  -5    0.27    5.46
 -19  -5   5    3.73    5.35
  19  -5  -5    9.40    4.45
 -19  -5   5   -2.05    3.54
  19   5  -5   -0.09    5.09
  19   5  -5   -1.84    4.19
 -19   5   5   -0.75    3.93
 -19   5   5    5.33    4.10
  17  -5  -5   27.25    5.31
  17  -5  -5   30.55    6.70
 -17  -5   5   23.58    5.30
 -17  -5   5   28.02    5.21
  17   5  -5   28.59    5.99
 -17   5   5   24.46    4.93
  17   5  -5   21.21    5.12
 -17   5   5   25.49    5.39
 -15  -5   5  171.93   10.27
 -15  -5   5  158.37   10.30
  15  -5  -5  155.21   11.61
  15  -5  -5  143.77    9.67
  15  -5  -5  171.08   10.82
 -15   5   5  159.88   10.10
 -15   5   5  163.92    9.72
  15   5  -5  167.74    9.93
  15   5  -5  158.36   10.76
 -13  -5   5  126.84    8.53
  13  -5  -5  127.12    8.49
 -13  -5   5  144.66    9.22
  13  -5  -5  153.91   10.22
  13  -5  -5  142.66    9.27
  13   5  -5  130.35    9.29
 -13   5   5  145.42    8.30
 -13   5   5  129.61    8.60
  13   5  -5  129.91    8.43
  11  -5  -5   84.58    6.90
 -11  -5   5   74.27    6.47
 -11  -5   5   89.75    7.30
  11  -5  -5   87.13    8.03
  11   5  -5  100.61    7.48
 -11   5   5   75.09    6.60
 -11   5   5   86.57    5.88
  11   5  -5   81.36    5.93
  -9  -5   5   44.39    4.88
   9  -5  -5   60.30    6.32
   9  -5  -5   56.91    5.62
   9  -5  -5   52.12    5.11
  -9  -5   5   44.36    5.14
   9   5  -5   48.29    5.46
  -9   5   5   55.21    5.26
   9   5  -5   50.82    4.52
  -9   5   5   57.24    4.48
   7  -5  -5  157.66    8.78
   7  -5  -5  147.93    8.18
   7  -5  -5  164.87    7.44
  -7  -5   5  150.20    8.51
   7  -5  -5  155.41    9.40
   7   5  -5  180.15    9.49
   7   5  -5  165.15    7.66
   7   5  -5  159.01    8.43
  -7   5   5  142.53    8.31
  -7   5   5  149.91    7.40
   5  -5  -5   46.66    4.76
  -5  -5   5   36.16    4.21
   5  -5  -5   40.19    4.10
  -5  -5   5   45.25    3.52
   5  -5  -5   43.88    3.84
   5  -5  -5   43.74    5.23
  -5   5   5   38.50    4.02
   5   5  -5   39.47    4.38
   5   5  -5   44.76    3.52
   5   5  -5   38.73    4.85
  -5   5   5   49.51    3.67
   3  -5  -5  623.61   23.76
   3  -5  -5  604.75   23.64
   3  -5  -5  617.04   24.21
  -3  -5   5  615.83   24.16
  -3  -5   5  617.11   23.34
   3  -5  -5  643.84   25.45
   3   5  -5  656.75   22.87
  -3   5   5  594.64   23.97
  -3   5   5  620.47   22.97
   3   5  -5  623.28   25.34
   3   5  -5  595.27   24.14
   1  -5  -5   29.36    3.06
  -1  -5   5   16.75    2.90
   1  -5  -5   36.01    5.11
   1  -5  -5   24.92    3.14
   1  -5  -5   21.82    3.08
  -1  -5   5   16.73    2.81
  -1   5   5   19.30    3.19
  -1   5   5   23.70    2.55
   1   5  -5   25.14    4.32
   1   5  -5   23.00    2.27
  -1   5   5   22.57    4.68
   1   5  -5   22.54    3.31
   1  -5   5   15.05    2.63
   1  -5   5   15.49    2.79
  -1  -5  -5   17.13    2.51
  -1  -5  -5   16.57    2.30
  -1  -5  -5   20.75    4.25
  -1  -5  -5   14.84    2.85
   1   5   5    7.09    3.85
  -1   5  -5   14.02    2.01
   1   5   5   14.61    2.17
   1   5   5   14.40    2.78
  -1   5  -5   15.45    2.98
  -1   5  -5   23.66    4.43
  -3  -5  -5   55.22    6.46
  -3  -5  -5   49.03    3.78
  -3  -5  -5   53.14    3.60
   3  -5   5   52.06    4.79
   3  -5   5   47.69    4.08
   3  -5   5   59.48    6.58
  -3  -5  -5   56.41    5.25
  -3   5  -5   48.75    3.77
   3   5   5   46.13    4.71
  -3   5  -5   57.60    6.38
  -3   5  -5   50.15    4.84
   3   5   5   51.51    6.17
   3   5   5   59.19    3.96
   5  -5   5   64.70    5.64
  -5  -5  -5   58.21    4.53
   5  -5   5   56.03    5.00
  -5  -5  -5   55.14    5.36
   5  -5   5   64.87    7.18
  -5   5  -5   51.89    4.23
  -5   5  -5   51.12    5.06
   5   5   5   63.63    7.40
   5   5   5   46.21    4.92
  -7  -5  -5  640.22   25.85
   7  -5   5  619.19   25.71
   7  -5   5  695.66   28.06
  -7  -5  -5  635.00   24.77
   7   5   5  643.87   27.49
  -7   5  -5  638.25   25.79
  -7   5  -5  628.89   24.60
   7   5   5  628.96   25.73
   9  -5   5   60.23    6.16
  -9  -5  -5   65.30    6.49
  -9  -5  -5   65.37    5.81
   9  -5   5   64.73    8.83
   9   5   5   61.26    6.30
   9   5   5   68.65    8.29
  -9   5  -5   78.12    6.35
  -9   5  -5   59.73    6.34
 -11  -5  -5   13.08    4.02
 -11  -5  -5   20.23    3.89
  11  -5   5   11.08    3.84
  11  -5   5   17.92    4.61
  11  -5   5    8.09    7.68
  11   5   5   13.43    3.92
 -11   5  -5   16.48    4.26
  11   5   5   19.39    6.40
  13  -5   5   15.40    4.41
 -13  -5  -5   13.90    4.36
 -13  -5  -5   16.36    4.33
  13   5   5   12.32    6.54
  13   5   5    7.31    4.16
 -13   5  -5   19.99    4.80
 -15  -5  -5   23.43    5.50
  15  -5   5   27.59    5.68
 -15  -5  -5   30.60    5.53
  15   5   5   24.72    5.43
 -15   5  -5   33.93    6.26
  15   5   5   27.43    8.52
  18  -6  -5    6.34    6.28
 -18  -6   5   -3.09    3.98
  18  -6  -5   -5.11    3.28
 -18  -6   5   -3.04    3.31
 -18   6   5   -5.06    3.42
  18   6  -5    0.30    3.99
 -18   6   5   -0.06    3.73
  18   6  -5   -0.98    5.43
  16  -6  -5   32.73    7.47
  16  -6  -5   28.33    5.39
 -16  -6   5   21.73    4.79
 -16  -6   5   29.04    5.67
 -16   6   5   33.78    5.82
  16   6  -5   21.27    6.15
 -16   6   5   34.06    5.33
  16   6  -5   33.26    5.68
 -14  -6   5   26.99    5.30
  14  -6  -5   23.46    6.52
 -14  -6   5   23.56    4.70
  14  -6  -5   21.00    5.13
  14  -6  -5   30.69    5.11
  14   6  -5   32.93    5.12
 -14   6   5   26.71    4.91
 -14   6   5   34.03    4.80
  14   6  -5   15.17    5.42
 -12  -6   5   94.59    7.89
  12  -6  -5   94.28    8.62
  12  -6  -5   89.50    7.95
 -12  -6   5   99.95    8.43
  12  -6  -5  110.97   10.18
  12   6  -5  105.46    7.48
 -12   6   5   90.22    6.78
 -12   6   5  100.38    7.38
  12   6  -5   94.96    8.85
  10  -6  -5   12.28    3.36
  10  -6  -5    8.89    3.48
 -10  -6   5   14.48    4.05
  10  -6  -5    9.56    4.51
  10   6  -5   19.32    4.75
 -10   6   5   17.61    3.36
 -10   6   5   19.02    3.80
  10   6  -5   12.79    3.59
  10   6  -5   12.66    3.40
   8  -6  -5  101.18    6.78
   8  -6  -5   85.63    7.71
  -8  -6   5   69.78    6.71
   8  -6  -5  101.15    8.83
   8   6  -5   87.52    5.84
  -8   6   5   84.35    5.61
   8   6  -5   86.09    6.98
  -8   6   5   89.14    6.42
   8   6  -5   73.64    7.78
   6  -6  -5   35.70    3.92
   6  -6  -5   25.51    4.19
   6  -6  -5   27.32    3.96
   6  -6  -5   45.60    6.26
  -6  -6   5   30.97    4.38
   6   6  -5   39.00    4.71
   6   6  -5   38.59    3.93
   6   6  -5   35.19    5.45
  -6   6   5   30.79    4.14
  -6   6   5   41.77    3.78
   4  -6  -5   25.66    3.61
   4  -6  -5   33.73    4.30
   4  -6  -5   30.55    5.31
  -4  -6   5   22.75    3.79
  -4  -6   5   34.73    3.45
   4  -6  -5   29.32    3.64
  -4   6   5   30.07    3.28
   4   6  -5   28.66    4.00
  -4   6   5   31.55    4.01
   4   6  -5   33.31    5.62
  -2  -6   5  151.44    7.68
   2  -6  -5  148.21    7.78
   2  -6  -5  144.68    7.96
  -2  -6   5  152.53    8.40
   2  -6  -5  152.59   10.04
   2  -6  -5  150.01    8.27
  -2   6   5  158.20    7.32
   2   6  -5  137.71    8.47
  -2   6   5  144.23    8.11
   2   6  -5  156.70   10.03
   0  -6  -5  242.14   11.41
   0  -6  -5  239.40   11.01
   0  -6  -5  237.52   10.45
   0  -6  -5  232.01   12.77
   0  -6   5  217.65   10.89
   0  -6   5  227.54   10.87
   0   6  -5  236.75   13.14
   0   6   5  246.12   10.26
   0   6   5  242.62   11.36
   0   6  -5  237.23   11.50
  -2  -6  -5    5.21    2.84
  -2  -6  -5    4.83    2.11
  -2  -6  -5    9.45    2.58
   2  -6   5    6.28    2.61
   2  -6   5    6.05    2.34
   2   6   5    9.01    2.37
   2   6   5    7.92    2.73
   2   6   5    4.21    4.27
  -2   6  -5    8.17    3.05
  -2   6  -5    9.22    4.62
   4  -6   5   43.18    4.46
   4  -6   5   40.00    4.73
  -4  -6  -5   40.31    5.07
  -4   6  -5   47.12    5.39
   4   6   5   36.35    4.58
   4   6   5   45.82    4.26
   4   6   5   46.98    6.65
  -6  -6  -5   76.81    7.12
   6  -6   5   68.96    6.47
  -6  -6  -5   72.17    5.75
   6   6   5   90.57    9.19
   6   6   5   76.73    6.69
  -6   6  -5   75.18    6.71
   8  -6   5  151.05    9.49
  -8  -6  -5  145.71    8.51
  -8  -6  -5  155.31    9.93
   8   6   5  167.55    9.68
  -8   6  -5  149.61    9.54
   8   6   5  163.95   11.83
 -10  -6  -5    1.63    2.84
  10  -6   5    6.84    3.42
 -10  -6  -5    7.29    4.01
  10   6   5    1.00    5.38
 -10   6  -5   -2.84    3.19
  10   6   5    0.08    3.07
 -12  -6  -5   12.33    4.00
  12  -6   5   12.74    4.26
 -12  -6  -5   11.58    4.55
 -12   6  -5   18.74    4.88
  12   6   5   12.49    4.14
  12   6   5   14.37    7.53
 -14  -6  -5   29.96    6.42
 -14  -6  -5   29.92    5.89
  14  -6   5   22.97    5.35
  14   6   5   24.27    8.80
  14   6   5   25.38    5.34
 -14   6  -5   20.33    5.51
  17  -7  -5   -1.75    7.01
  17  -7  -5    0.24    3.48
 -17  -7   5    4.95    4.90
 -17  -7   5   -0.47    3.72
 -17   7   5    5.05    5.16
  17   7  -5    4.63    5.19
 -17   7   5    2.95    4.30
  17   7  -5   -1.30    5.98
 -15  -7   5   42.83    6.82
 -15  -7   5   43.68    6.26
  15  -7  -5   50.77    6.53
  15  -7  -5   59.16    9.47
  15   7  -5   43.92    6.92
 -15   7   5   57.07    6.91
 -15   7   5   49.66    6.46
  15   7  -5   47.26    8.26
  13  -7  -5   62.01    9.11
 -13  -7   5   68.30    7.73
  13  -7  -5   55.02    6.55
  13   7  -5   74.28    9.20
 -13   7   5   66.34    7.01
  13   7  -5   70.46    7.73
  13   7  -5   65.43    7.15
 -13   7   5   65.96    6.59
  11  -7  -5   79.61    9.31
  11  -7  -5   70.03    7.09
  11  -7  -5   60.46    7.34
 -11  -7   5   71.15    7.44
 -11   7   5   91.31    7.11
 -11   7   5   72.65    7.03
  11   7  -5   89.34    8.05
  11   7  -5   86.99    9.30
   9  -7  -5   14.35    4.15
   9  -7  -5   15.80    4.10
   9  -7  -5   15.24    5.48
  -9  -7   5   16.00    4.09
   9   7  -5   16.20    5.48
   9   7  -5   20.24    4.48
  -9   7   5   21.37    3.86
  -9   7   5   16.37    3.91
  -7  -7   5   31.13    4.77
   7  -7  -5   32.00    4.68
   7  -7  -5   18.75    4.52
   7  -7  -5   32.25    6.24
   7   7  -5   25.16    4.70
  -7   7   5   24.62    4.10
   7   7  -5   31.11    6.06
  -7   7   5   32.11    4.15
   5  -7  -5   24.55    3.81
   5  -7  -5   30.94    4.44
   5  -7  -5   23.47    4.17
   5  -7  -5   45.86    6.98
  -5  -7   5   17.50    3.88
  -5   7   5   28.40    4.26
   5   7  -5   29.59    4.80
  -5   7   5   26.02    5.56
   5   7  -5   19.90    5.49
   3  -7  -5  112.54    7.76
   3  -7  -5  115.20    7.33
   3  -7  -5  152.63   11.75
   3  -7  -5  126.36    7.49
  -3  -7   5  116.54    6.94
  -3  -7   5  105.40    8.09
   3   7  -5  126.76    8.11
  -3   7   5  102.79    7.33
   3   7  -5  146.24   11.18
  -1  -7   5  217.13   10.55
   1  -7  -5  217.25   10.37
   1  -7  -5  228.22   13.44
   1  -7  -5  239.44   11.32
   1  -7  -5  216.59   10.98
  -1  -7   5  196.28   10.59
   1   7  -5  196.67   11.15
   1   7  -5  228.37   13.70
  -1   7   5  205.78   10.92
  -1  -7  -5  119.90    8.04
   1  -7   5  132.30    7.84
   1  -7   5  141.12    8.09
  -1  -7  -5  131.19    7.40
  -1  -7  -5  129.27    8.05
   1   7   5  141.46    8.45
  -1   7  -5  119.71    8.61
  -1   7  -5  154.07   11.39
   3  -7   5   18.59    3.91
   3  -7   5   15.46    3.82
  -3  -7  -5   19.28    4.05
   3   7   5   18.54    3.79
  -3   7  -5   20.45    4.33
  -5  -7  -5    2.29    2.95
   5  -7   5    0.30    2.98
  -5   7  -5    4.37    3.27
   5   7   5   -2.46    2.30
  -7  -7  -5   27.21    5.16
   7  -7   5   27.06    4.91
  -7   7  -5   19.46    4.55
   7   7   5   31.62    4.91
  -9  -7  -5    5.48    3.90
   9  -7   5   -0.09    3.56
   9   7   5   -2.31    3.02
  -9   7  -5    6.01    3.99
  11  -7   5   -1.55    3.25
 -11  -7  -5    4.86    4.44
 -11   7  -5   -0.45    3.76
  11   7   5    1.02    3.48
  13  -7   5    6.32    4.35
 -13  -7  -5   -0.89    4.71
  13   7   5   -1.77    3.83
 -13   7  -5   -1.87    4.07
 -16  -8   5   44.68    7.81
  16  -8  -5   60.90    7.35
  16  -8  -5   54.57   10.94
  16   8  -5   55.58    9.96
  16   8  -5   40.25    7.47
 -16   8   5   44.36    6.94
  14  -8  -5    9.02    7.16
 -14  -8   5   15.96    5.67
  14  -8  -5    8.17    4.11
  14   8  -5   10.43    5.04
 -14   8   5   12.59    4.50
  14   8  -5   23.26    7.48
 -12  -8   5   -7.60    3.38
  12  -8  -5    0.38    5.44
  12  -8  -5    2.32    4.15
 -12   8   5    3.08    3.41
  12   8  -5   -4.48    5.53
  12   8  -5    3.21    4.15
  10  -8  -5    2.13    3.80
 -10  -8   5   -1.17    3.02
  10  -8  -5   -4.39    5.53
  10   8  -5   -2.72    4.89
 -10   8   5   -0.36    2.81
  10   8  -5    2.34    3.67
   8  -8  -5    4.45    3.81
   8  -8  -5   -4.10    4.98
  -8  -8   5    2.96    3.32
   8  -8  -5    6.56    3.55
   8   8  -5   -0.18    3.56
  -8   8   5    0.46    3.11
   8   8  -5    2.34    5.72
  -6  -8   5    3.22    3.17
   6  -8  -5    4.76    5.66
   6  -8  -5    1.29    2.95
   6  -8  -5    3.04    3.63
   6   8  -5   -2.55    4.63
  -6   8   5    1.85    2.72
   6   8  -5   -2.82    3.31
   4  -8  -5    3.72    3.25
   4  -8  -5    0.02    2.95
   4  -8  -5   -2.96    3.02
  -4  -8   5    4.26    3.03
  -4   8   5   -2.03    2.40
   4   8  -5   -3.10    4.41
   4   8  -5   -0.63    3.47
  -2  -8   5  205.31   10.17
   2  -8  -5  196.24   10.91
   2  -8  -5  204.02   10.68
   2  -8  -5  198.98   10.30
  -2  -8   5  178.04   10.43
   2   8  -5  203.61   14.19
  -2   8   5  183.06   10.46
   2   8  -5  177.37   11.11
   0  -8   5  150.65    8.89
   0  -8  -5  126.61    8.73
   0  -8   5  132.66    8.76
   0   8   5  127.68    8.74
   0   8  -5  141.36    9.63
   0   8  -5  208.06   14.16
   2  -8   5   42.31    5.41
  -2  -8  -5   44.52    5.63
   2  -8   5   51.96    5.98
   2   8   5   44.20    5.60
  -2   8  -5   47.23    6.13
  -4  -8  -5    8.27    3.55
   4  -8   5   13.70    4.16
   4   8   5    9.20    3.50
  -4   8  -5    7.91    4.35
   6  -8   5   41.20    5.71
  -6  -8  -5   27.68    5.22
  -6   8  -5   30.11    5.58
   6   8   5   30.78    5.03
   8  -8   5   63.12    7.34
  -8  -8  -5   65.50    7.82
   8   8   5   47.64    6.62
  -8   8  -5   58.15    7.11
 -10  -8  -5    2.54    4.42
  10  -8   5   -1.24    3.98
  10   8   5    1.34    3.64
 -10   8  -5    2.65    4.23
  12  -8   5    5.36    4.22
 -12  -8  -5    7.75    5.28
  12   8   5    1.09    4.02
 -12   8  -5   -1.67    4.70
  13  -9  -5   -0.19    4.29
 -13  -9   5    2.65    4.90
  13  -9  -5   13.58    9.43
  13   9  -5   -1.86    6.97
  13   9  -5   -4.73    4.64
 -13   9   5    1.31    3.95
 -11  -9   5    7.88    4.53
  11  -9  -5  -14.57    8.04
  11  -9  -5    5.23    4.35
  11   9  -5   -1.17    4.60
 -11   9   5    4.78    4.25
  11   9  -5    2.62    6.53
   9  -9  -5   39.92    6.14
  -9  -9   5   38.45    6.19
  -9   9   5   41.49    5.98
   9   9  -5   34.02    8.89
   9   9  -5   26.55    5.91
   7  -9  -5   53.40    6.61
  -7  -9   5   58.11    7.27
   7   9  -5   64.91    7.52
   7   9  -5   62.48    9.60
  -7   9   5   57.69    6.62
  -5  -9   5   11.82    4.13
   5  -9  -5    5.67    3.80
  -5   9   5    1.09    3.11
   5   9  -5    0.26    6.22
   5   9  -5    8.06    4.65
  -3  -9   5   17.10    4.42
   3  -9  -5   19.86    4.78
   3  -9  -5   13.25    4.09
   3   9  -5   15.01    7.49
  -3   9   5   12.74    4.09
   3   9  -5   24.58    5.15
  -1  -9   5   74.95    6.95
  -1  -9   5   66.83    6.83
   1  -9  -5   64.63    6.91
  -1   9   5   52.55    6.28
   1   9  -5   46.92    6.55
   1  -9   5   19.49    4.60
  -1  -9  -5   14.77    4.34
  -1   9  -5   17.70    5.05
   1   9   5    7.83    3.63
   3  -9   5   81.84    7.87
  -3  -9  -5   58.67    7.22
   3   9   5   64.14    7.01
  -3   9  -5   66.90    7.74
  -5  -9  -5   77.38    8.22
   5  -9   5   58.17    7.13
  -5   9  -5   60.52    7.33
   5   9   5   58.52    7.11
   7  -9   5    6.12    4.68
  -7  -9  -5   -2.42    3.52
  -7   9  -5   -2.68    3.84
   7   9   5    0.42    3.66
  -9  -9  -5   -2.23    4.19
   9  -9   5    3.73    4.46
  -9   9  -5    1.65    4.52
   9   9   5    0.02    4.12
 -10 -10   5    5.84    4.59
  10 -10  -5   -0.83    4.47
 -10  10   5    3.37    3.94
  10  10  -5    2.25    5.48
  10  10  -5    2.54    7.68
  -8 -10   5    2.11    4.01
   8 -10  -5    2.96    4.28
   8  10  -5    1.26    7.44
   8  10  -5    7.80    5.48
  -8  10   5   -2.67    3.96
  -6 -10   5    1.32    3.95
   6 -10  -5   -0.58    4.04
  -6  10   5    3.56    4.05
   6  10  -5    3.72    8.47
   6  10  -5    1.83    4.38
   4 -10  -5    7.67    4.31
  -4 -10   5   10.04    4.32
   4  10  -5   19.45    5.55
  -4  10   5    8.10    4.26
  -2 -10   5    6.72    4.32
   2 -10  -5    3.74    4.78
  -2  10   5    4.98    4.34
   2  10  -5    8.06    4.60
   0 -10  -5   14.22    4.65
   0  10  -5   12.37    4.90
   0  10   5   13.10    4.58
   2 -10   5   97.59    8.89
  -2 -10  -5  103.12    9.56
   2  10   5   94.73    8.85
  -2  10  -5  100.17    9.74
   4 -10   5   79.01    8.55
  -4 -10  -5   86.15    8.89
   4  10   5   93.08    9.25
  -4  10  -5   74.29    8.68
  -6 -10  -5   11.45    4.87
   6 -10   5    4.72    4.82
   6  10   5   14.66    5.31
  -6  10  -5    8.35    5.31
  -3 -11   5   13.71    5.25
   3  11  -5    3.27    5.39
  -3  11   5   -1.65    4.62
  -1  11   5    2.50    4.98
   1  11  -5   17.60    6.30
  -1 -11  -5   -3.20    4.51
   1  11   5    3.48    4.76
  -1  11  -5    4.95    5.36
  22   0  -6   16.05    4.59
 -22   0   6   18.53    5.17
  22   0  -6   18.05    5.27
  20   0  -6   20.60    4.72
 -20   0   6   26.35    5.12
  20   0  -6   27.90    5.17
  18   0  -6   11.18    3.80
  18   0  -6    6.04    3.26
 -18   0   6    4.07    3.40
 -16   0   6    7.17    3.03
  16   0  -6    3.74    2.65
  16   0  -6   13.32    3.48
 -16   0   6   15.21    3.74
  14   0  -6   54.92    4.95
  14   0  -6   48.18    4.24
  14   0  -6   47.94    4.26
 -14   0   6   47.75    4.83
 -14   0   6   55.47    5.40
  12   0  -6  216.95    9.48
 -12   0   6  211.46    8.92
 -12   0   6  208.80    9.97
  12   0  -6  196.04    8.62
  12   0  -6  194.03    9.04
 -12   0   6  210.32    9.67
  12   0  -6  196.99    8.59
  10   0  -6  699.15   25.64
 -10   0   6  687.24   25.98
 -10   0   6  686.43   26.19
  10   0  -6  669.61   24.37
 -10   0   6  714.45   25.56
  10   0  -6  697.61   25.97
  10   0  -6  678.08   24.39
  -8   0   6  290.54   11.73
  -8   0   6  293.68   11.65
  -8   0   6  282.63   11.90
  -8   0   6  300.10   11.65
  -6   0   6  470.41   17.44
  -6   0   6  469.94   17.58
  -6   0   6  466.26   17.58
  -6   0   6  464.69   17.50
  -4   0   6   59.90    3.01
  -4   0   6   58.76    3.41
  -4   0   6   53.78    3.14
   4   0  -6   56.49    2.26
   4   0  -6   53.79    2.22
  -4   0   6   56.43    3.34
   2   0  -6  961.71   34.76
  -2   0   6  999.72   34.75
   2   0  -6  947.79   34.67
  -2   0   6  955.48   34.34
   0   0  -6  940.57   34.95
   0   0  -6  976.31   34.05
   0   0   6  946.35   34.09
   0   0  -6  954.62   34.49
   0   0   6  964.31   34.46
   2   0   6  226.44    9.03
  -2   0  -6  224.29    8.99
  -2   0  -6  218.80   10.14
   2   0   6  233.56    9.24
  -2   0  -6  216.57    9.23
  -4   0  -6  643.81   24.90
   4   0   6  634.43   23.52
  -4   0  -6  628.95   23.56
   4   0   6  641.60   24.86
  -4   0  -6  629.00   23.53
   4   0   6  618.02   23.49
  -6   0  -6  129.02    7.69
  -6   0  -6  110.14    5.81
   6   0   6  112.21    7.35
   6   0   6  106.47    5.84
   6   0   6  109.21    5.73
  -6   0  -6  101.78    5.76
   8   0   6  116.18    6.67
   8   0   6  110.86    6.14
   8   0   6  116.25    8.20
  -8   0  -6  119.01    6.65
  -8   0  -6  117.55    6.34
 -10   0  -6  463.34   20.41
  10   0   6  520.41   20.09
  10   0   6  515.92   20.80
 -10   0  -6  505.12   19.92
  10   0   6  530.86   22.69
  12   0   6  100.60    7.35
 -12   0  -6   99.17    7.19
  12   0   6  129.70   10.88
  14   0   6    3.21    3.48
  14   0   6   -6.57    4.21
 -14   0  -6    2.30    2.99
  16   0   6   23.92    7.45
 -16   0  -6   26.26    5.07
  16   0   6   14.25    4.76
  18   0   6   70.01   11.57
 -18   0  -6   57.67    7.23
  18   0   6   51.47    7.63
  21  -1  -6    0.18    3.94
 -21  -1   6    1.78    3.79
  21  -1  -6    4.71    3.85
  21   1  -6   -2.77    3.11
 -21   1   6    0.39    4.06
  21   1  -6    0.92    3.59
  19  -1  -6   61.80    7.09
  19  -1  -6   51.75    6.47
 -19  -1   6   55.26    6.68
  19   1  -6   56.81    6.61
 -19   1   6   31.38    5.36
  19   1  -6   58.93    6.38
  17  -1  -6   12.10    3.79
  17  -1  -6    2.60    2.86
 -17  -1   6    6.67    3.18
  17  -1  -6    8.49    3.99
  17   1  -6    5.18    2.99
  17   1  -6   10.61    3.50
 -17   1   6    9.04    3.73
 -17   1   6    7.81    3.37
  15  -1  -6   17.46    3.34
  15  -1  -6   17.93    3.57
  15  -1  -6   12.31    3.04
 -15  -1   6   17.64    3.68
 -15   1   6   14.60    3.37
 -15   1   6   19.81    3.92
  15   1  -6   14.92    2.98
  15   1  -6   14.83    3.51
  13  -1  -6    4.85    2.07
  13  -1  -6    2.07    2.17
 -13  -1   6    1.42    2.13
  13  -1  -6    2.50    2.05
 -13  -1   6    1.52    2.04
 -13   1   6    0.80    2.23
  13   1  -6    0.74    2.09
  13   1  -6    0.34    1.64
  13   1  -6    4.82    2.22
  13   1  -6    2.91    1.95
 -13   1   6    0.60    1.90
  11  -1  -6  321.84   13.28
  11  -1  -6  310.18   12.92
 -11  -1   6  303.07   13.23
 -11  -1   6  314.24   12.93
 -11  -1   6  312.73   13.28
  11  -1  -6  322.56   12.40
  11  -1  -6  291.58   12.28
  11   1  -6  300.33   11.78
 -11   1   6  314.90   13.05
  11   1  -6  315.90   11.87
 -11   1   6  323.95   12.17
  11   1  -6  319.84   12.47
  11   1  -6  299.66   12.68
 -11   1   6  316.99   13.49
  -9  -1   6 1748.66   63.63
   9  -1  -6 1751.48   62.52
   9  -1  -6 1796.19   62.50
   9  -1  -6 1757.01   63.45
  -9  -1   6 1778.57   63.55
  -9  -1   6 1775.60   63.47
   9  -1  -6 1756.54   63.83
  -9  -1   6 1794.37   62.96
  -9   1   6 1808.87   62.84
  -9   1   6 1775.69   63.35
  -9   1   6 1785.01   63.84
   7  -1  -6  720.44   25.67
  -7  -1   6  738.46   26.65
   7  -1  -6  697.86   25.66
  -7  -1   6  725.07   26.87
  -7  -1   6  733.40   26.80
  -7  -1   6  740.47   26.44
  -7   1   6  733.31   26.45
  -7   1   6  721.95   26.96
  -7   1   6  737.23   26.37
  -7   1   6  710.91   26.73
  -5  -1   6  457.74   17.60
  -5  -1   6  468.31   17.34
   5  -1  -6  472.19   17.04
  -5  -1   6  465.36   17.86
   5  -1  -6  475.29   17.54
   5  -1  -6  473.22   17.09
  -5  -1   6  468.61   17.54
  -5   1   6  483.25   17.16
  -5   1   6  467.64   17.78
  -5   1   6  472.74   17.73
   3  -1  -6  123.11    5.71
  -3  -1   6  131.36    5.71
  -3  -1   6  125.76    5.88
   3  -1  -6  122.12    5.67
   3   1  -6  125.58    5.60
  -3   1   6  132.86    5.76
  -3   1   6  128.61    5.77
   3   1  -6  130.08    5.59
  -1  -1   6   40.49    2.93
   1  -1  -6   40.34    3.12
  -1  -1   6   41.92    2.90
   1  -1  -6   34.04    3.23
   1   1  -6   32.23    3.13
  -1   1   6   44.75    2.85
  -1   1   6   42.54    2.80
   1   1  -6   38.97    2.80
  -1  -1  -6  973.31   36.16
  -1  -1  -6 1009.77   34.77
   1  -1   6  971.58   35.46
   1  -1   6  956.79   34.73
  -1  -1  -6  955.55   35.50
  -1   1  -6  963.16   36.15
   1   1   6  997.70   35.24
  -1   1  -6  994.50   35.34
   1   1   6  977.16   35.34
  -1   1  -6  993.54   35.38
   3  -1   6  431.39   16.48
  -3  -1  -6  418.46   17.43
  -3  -1  -6  409.48   16.43
   3  -1   6  421.30   17.46
   3  -1   6  423.14   15.95
  -3  -1  -6  420.88   15.97
   3   1   6  434.65   16.10
   3   1   6  435.58   17.51
  -3   1  -6  424.73   16.41
  -3   1  -6  421.39   16.19
   3   1   6  440.42   16.49
  -3   1  -6  424.04   17.46
   5  -1   6  172.75    8.21
  -5  -1  -6  188.09    9.78
   5  -1   6  181.62    9.73
  -5  -1  -6  169.51    8.18
  -5  -1  -6  190.47    8.16
   5  -1   6  188.31    8.28
  -5   1  -6  181.87    7.87
   5   1   6  183.62    7.75
  -5   1  -6  192.84    9.60
   5   1   6  172.50    8.26
   5   1   6  178.78    9.49
  -5   1  -6  173.40    8.31
   7  -1   6    5.08    3.29
   7  -1   6    9.05    2.08
   7  -1   6    7.50    2.01
  -7  -1  -6    4.12    2.04
  -7  -1  -6   10.06    3.85
  -7  -1  -6    6.74    1.99
  -7   1  -6    9.26    2.33
   7   1   6    4.51    2.06
  -7   1  -6    9.60    1.94
  -7   1  -6   15.14    4.36
   7   1   6    6.38    1.71
   7   1   6    6.74    3.19
   9  -1   6   14.60    3.98
   9  -1   6   13.47    2.72
   9  -1   6   16.88    3.05
  -9  -1  -6    9.66    2.69
  -9  -1  -6   10.81    2.70
  -9   1  -6    8.86    2.71
   9   1   6   12.89    3.03
   9   1   6   12.45    2.47
   9   1   6   14.44    4.02
  -9   1  -6   10.97    2.54
  11  -1   6  154.34   10.77
 -11  -1  -6  179.95    9.11
  11  -1   6  167.35    9.27
 -11  -1  -6  155.44    8.93
  11  -1   6  168.15    8.83
  11   1   6  162.81    9.33
 -11   1  -6  157.93    9.14
 -13  -1  -6   24.91    4.24
  13  -1   6   23.72    4.40
  13  -1   6   18.86    5.80
  13  -1   6   30.07    4.87
 -13   1  -6   23.18    4.28
  13   1   6   30.87    6.73
  13   1   6   27.52    4.84
  15  -1   6    4.72    5.85
 -15  -1  -6    1.03    3.05
  15  -1   6    3.64    3.80
  15   1   6   -1.96    3.61
 -15   1  -6    3.98    3.20
  15   1   6   -8.58    5.25
  17  -1   6  -10.71    5.98
 -17  -1  -6   -1.50    3.12
  17  -1   6   -0.54    4.02
  17   1   6   -3.98    6.55
  17   1   6   -3.60    3.96
 -17   1  -6    3.27    3.47
  22  -2  -6    4.11    5.32
  22  -2  -6    0.90    5.65
 -22  -2   6   -2.09    4.24
 -22   2   6    1.58    4.48
  22   2  -6    8.40    4.45
  22   2  -6    2.36    4.21
  20  -2  -6   22.00    5.60
 -20  -2   6   14.07    4.79
 -20   2   6   16.57    4.81
  20   2  -6   18.17    4.84
  20   2  -6   20.19    4.88
 -20   2   6   11.11    4.23
  18  -2  -6    2.14    3.68
 -18  -2   6    0.41    3.29
  18  -2  -6    0.18    3.40
  18  -2  -6   -0.90    3.09
 -18   2   6    2.62    3.18
 -18   2   6    5.67    3.60
  18   2  -6    7.06    3.39
  18   2  -6    1.60    3.16
 -16  -2   6    1.52    3.29
 -16  -2   6    2.73    2.76
  16  -2  -6   -1.31    2.84
  16  -2  -6    7.82    3.17
  16  -2  -6    4.19    3.29
 -16   2   6    8.70    3.19
  16   2  -6    3.61    3.04
  16   2  -6    4.22    2.86
 -16   2   6    3.16    3.20
 -14  -2   6   15.66    3.14
  14  -2  -6    8.25    3.16
 -14  -2   6   12.03    3.13
  14  -2  -6   10.32    3.18
  14  -2  -6   13.11    3.16
  14   2  -6   14.58    3.23
 -14   2   6   13.25    3.00
  14   2  -6   13.94    2.83
 -14   2   6   16.17    3.50
  12  -2  -6   71.40    5.57
 -12  -2   6   65.71    5.55
 -12  -2   6   78.56    5.33
  12  -2  -6   65.50    5.01
  12  -2  -6   76.42    5.74
  12   2  -6   74.40    5.21
 -12   2   6   79.05    5.13
  12   2  -6   62.79    4.37
 -12   2   6   77.01    5.60
  10  -2  -6   74.92    5.19
 -10  -2   6   75.26    5.12
 -10  -2   6   85.89    5.23
  10  -2  -6   72.82    5.24
  10  -2  -6   76.46    4.85
  10  -2  -6   81.92    4.03
  10  -2  -6   84.27    5.24
 -10  -2   6   84.11    4.20
  10   2  -6   82.43    4.27
  10   2  -6   76.16    4.11
  10   2  -6   84.55    5.03
 -10   2   6   79.94    4.80
 -10   2   6   82.99    5.39
   8  -2  -6   70.15    4.54
  -8  -2   6   79.90    4.68
   8  -2  -6   70.64    4.86
  -8  -2   6   75.33    4.73
   8  -2  -6   75.81    3.79
  -8  -2   6   76.16    3.95
   8  -2  -6   64.27    4.21
   8  -2  -6   76.54    4.76
  -8   2   6   67.57    4.69
   8   2  -6   64.38    4.08
   8   2  -6   66.41    3.40
   8   2  -6   71.59    3.49
  -8   2   6   78.81    4.24
  -6  -2   6   49.48    3.88
  -6  -2   6   48.65    3.46
  -6  -2   6   48.06    3.05
   6  -2  -6   45.55    2.89
   6  -2  -6   45.45    3.33
  -6   2   6   47.92    3.79
   6   2  -6   48.61    2.71
   6   2  -6   46.79    2.73
  -6   2   6   42.48    2.85
   6   2  -6   46.63    2.92
  -6   2   6   50.80    3.64
   4  -2  -6  131.77    5.77
  -4  -2   6  131.43    6.26
   4  -2  -6  113.49    5.97
  -4  -2   6  129.21    5.73
  -4   2   6  129.42    6.08
   4   2  -6  129.14    6.11
  -4   2   6  120.57    5.89
   4   2  -6  123.43    5.79
  -2  -2   6   39.91    3.23
  -2  -2   6   43.00    3.01
   2  -2  -6   42.69    3.62
   2  -2  -6   44.54    3.17
   2   2  -6   38.11    3.14
  -2   2   6   43.96    3.14
   2   2  -6   37.40    3.50
  -2   2   6   41.34    2.90
   0  -2   6 1448.75   52.21
   0  -2  -6 1455.14   52.91
   0  -2  -6 1479.78   52.29
   0  -2   6 1438.78   52.12
   0   2  -6 1466.54   52.93
   0   2  -6 1474.57   52.22
   0   2   6 1473.95   51.92
   0   2   6 1432.86   52.19
  -2  -2  -6    6.61    1.28
   2  -2   6    3.94    1.71
  -2  -2  -6    7.88    2.65
   2  -2   6    8.54    1.69
  -2  -2  -6    1.67    1.72
   2  -2   6    6.88    1.29
  -2   2  -6    3.75    1.81
  -2   2  -6    5.12    2.52
   2   2   6    6.26    2.85
   2   2   6    5.77    1.82
   2   2   6    5.98    1.46
  -4  -2  -6  343.87   14.93
   4  -2   6  331.04   13.64
  -4  -2  -6  323.78   12.93
   4  -2   6  342.43   14.98
   4  -2   6  328.24   12.90
  -4  -2  -6  316.36   13.62
  -4   2  -6  343.86   14.83
  -4   2  -6  344.53   13.06
  -4   2  -6  330.22   13.62
   4   2   6  338.98   14.90
   4   2   6  319.30   13.58
   4   2   6  331.74   12.81
   6  -2   6   18.61    2.47
  -6  -2  -6   21.58    3.04
   6  -2   6   15.82    2.78
  -6  -2  -6   21.28    4.10
   6  -2   6   15.71    3.71
  -6  -2  -6   15.90    2.43
   6   2   6   11.89    3.61
  -6   2  -6   21.80    4.01
  -6   2  -6   17.36    2.79
  -6   2  -6   17.99    2.31
   6   2   6   14.34    2.64
   6   2   6   19.42    2.20
  -8  -2  -6   73.54    5.23
  -8  -2  -6   79.75    5.75
   8  -2   6   86.09    5.30
   8  -2   6   82.25    5.64
   8  -2   6   99.15    8.23
   8   2   6   74.45    7.25
   8   2   6   71.39    5.15
   8   2   6   89.87    5.88
  -8   2  -6   82.31    5.84
  -8   2  -6   86.20    4.91
 -10  -2  -6  166.38    8.90
  10  -2   6  171.07    9.24
  10  -2   6  172.60    9.10
  10  -2   6  179.04   11.47
 -10  -2  -6  176.88    9.35
  10   2   6  172.90    9.57
  10   2   6  181.45   11.51
 -10   2  -6  164.46    9.25
  12  -2   6   27.70    4.48
  12  -2   6   33.86    4.62
 -12  -2  -6   26.95    4.21
 -12  -2  -6   35.75    4.83
  12  -2   6   37.74    7.09
  12   2   6   35.73    6.36
 -12   2  -6   33.04    4.69
  12   2   6   35.84    5.14
 -14  -2  -6    0.85    2.81
  14  -2   6   -1.57    5.08
  14  -2   6    4.96    3.26
  14  -2   6    0.34    2.93
  14   2   6   -6.42    4.78
  14   2   6    0.08    3.30
 -14   2  -6   -2.14    2.78
  16  -2   6   19.59    7.35
 -16  -2  -6   14.82    4.30
  16  -2   6    8.31    4.16
  16   2   6   17.02    5.21
  16   2   6   13.59    6.56
 -16   2  -6   14.38    4.27
  18  -2   6    5.99    5.52
 -18  -2  -6   -1.26    3.80
  18   2   6    8.26    8.97
 -18   2  -6    2.18    3.97
  18   2   6   -0.36    4.97
  21  -3  -6    6.81    5.28
 -21  -3   6   15.29    5.06
 -21   3   6    6.85    4.21
  21   3  -6    5.69    4.45
  21   3  -6    0.31    4.45
 -21   3   6    9.52    4.79
 -19  -3   6    1.35    3.60
  19  -3  -6    0.44    3.56
  19  -3  -6    6.69    4.37
 -19   3   6   -2.19    3.09
  19   3  -6    6.93    3.73
  19   3  -6   -2.90    3.35
 -19   3   6    3.47    3.76
  17  -3  -6    7.68    3.94
  17  -3  -6   12.85    4.44
  17  -3  -6    5.92    3.58
 -17  -3   6    5.18    3.60
 -17  -3   6    9.06    3.52
  17   3  -6    6.75    3.36
 -17   3   6    1.86    3.13
  17   3  -6    2.39    3.12
 -17   3   6    9.20    3.67
 -15  -3   6   39.83    5.18
  15  -3  -6   34.55    5.21
  15  -3  -6   43.78    5.41
  15  -3  -6   40.08    4.95
 -15  -3   6   40.35    5.10
  15   3  -6   36.22    4.58
 -15   3   6   34.69    5.01
 -15   3   6   41.10    4.79
  15   3  -6   28.05    4.31
 -13  -3   6   18.48    3.34
  13  -3  -6    7.47    3.18
  13  -3  -6    9.48    3.24
  13  -3  -6   12.00    3.16
 -13  -3   6   14.54    3.35
 -13   3   6   11.50    3.16
  13   3  -6   12.94    2.99
  13   3  -6   12.07    2.90
 -13   3   6   13.37    2.89
  11  -3  -6  130.40    7.63
  11  -3  -6  114.38    7.05
 -11  -3   6  133.84    7.16
  11  -3  -6  116.77    6.96
 -11  -3   6  114.29    6.98
  11   3  -6  115.92    6.50
 -11   3   6  113.27    7.12
  11   3  -6  126.33    6.62
 -11   3   6  124.82    6.55
  -9  -3   6  359.33   15.14
  -9  -3   6  356.70   15.14
  -9  -3   6  368.12   13.73
   9  -3  -6  372.81   13.73
   9  -3  -6  367.94   15.08
   9  -3  -6  362.02   15.22
   9  -3  -6  358.93   15.48
   9   3  -6  361.68   14.47
  -9   3   6  353.70   14.34
   9   3  -6  340.59   14.38
   9   3  -6  377.67   14.70
  -9   3   6  366.17   15.28
   7  -3  -6   12.00    1.83
   7  -3  -6    9.69    2.27
  -7  -3   6   13.56    2.55
  -7  -3   6   15.08    1.95
  -7  -3   6   17.83    2.75
   7  -3  -6    8.72    2.43
   7  -3  -6    7.71    2.50
   7   3  -6   14.53    1.96
   7   3  -6   13.75    2.28
  -7   3   6   16.85    2.06
   7   3  -6   13.01    2.57
  -7   3   6   14.03    2.67
   5  -3  -6   47.33    4.35
  -5  -3   6   44.72    3.13
   5  -3  -6   41.68    3.21
  -5  -3   6   43.79    3.88
   5  -3  -6   43.18    3.61
   5  -3  -6   48.08    4.00
  -5   3   6   53.02    3.87
   5   3  -6   49.84    3.91
   5   3  -6   49.86    4.03
   5   3  -6   46.51    2.71
  -5   3   6   43.53    2.70
  -3  -3   6  195.41    8.74
   3  -3  -6  205.30    8.48
   3  -3  -6  194.43    9.23
  -3  -3   6  178.39    8.19
   3   3  -6  207.82    9.17
  -3   3   6  189.88    8.36
   3   3  -6  194.53    8.68
  -3   3   6  184.56    8.59
  -1  -3   6  478.54   18.42
  -1  -3   6  475.24   18.28
   1  -3  -6  476.67   18.42
   1  -3  -6  482.92   19.41
   1   3  -6  486.85   18.59
  -1   3   6  473.81   18.06
   1   3  -6  478.03   19.22
  -1   3   6  474.08   18.49
  -1  -3  -6   74.95    3.59
  -1  -3  -6   73.65    4.76
   1  -3   6   69.67    4.73
  -1  -3  -6   79.26    5.57
   1  -3   6   68.98    4.32
  -1   3  -6   80.70    6.32
   1   3   6   81.51    6.15
   1   3   6   67.35    4.62
   1   3   6   74.96    4.02
  -1   3  -6   82.83    4.98
  -3  -3  -6   11.06    1.77
   3  -3   6   19.11    1.89
   3  -3   6   15.27    2.76
  -3  -3  -6   15.86    3.66
  -3  -3  -6   12.93    2.52
   3  -3   6   19.50    3.79
   3  -3   6   13.79    2.11
   3   3   6   12.93    3.73
  -3   3  -6   13.57    2.57
   3   3   6   14.47    1.92
   3   3   6   10.06    2.42
  -3   3  -6   17.73    3.71
  -5  -3  -6  163.46    8.59
  -5  -3  -6  173.26    7.76
   5  -3   6  174.28    8.73
   5  -3   6  179.31    7.68
  -5  -3  -6  185.52   10.11
   5  -3   6  180.89   10.17
   5   3   6  172.71    7.28
   5   3   6  162.35    8.46
  -5   3  -6  167.04    9.68
   5   3   6  180.14    9.84
  -5   3  -6  164.76    8.59
  -5   3  -6  170.62    7.61
   7  -3   6    0.49    1.74
   7  -3   6    5.45    3.51
  -7  -3  -6    4.09    1.99
  -7  -3  -6    0.59    2.03
   7  -3   6    5.11    2.49
   7   3   6    0.66    3.52
  -7   3  -6    0.81    2.19
  -7   3  -6    4.52    2.03
   7   3   6    1.08    2.06
   9  -3   6  582.13   23.06
   9  -3   6  580.59   22.37
   9  -3   6  570.86   24.98
  -9  -3  -6  543.91   22.35
  -9  -3  -6  556.06   22.78
   9   3   6  575.94   24.76
  -9   3  -6  560.94   23.07
   9   3   6  558.36   23.09
  11  -3   6   20.04    4.02
  11  -3   6   33.15    6.30
 -11  -3  -6   22.65    4.21
 -11  -3  -6   29.26    4.24
  11  -3   6   34.75    4.54
 -11   3  -6   27.50    4.61
  11   3   6   26.23    4.37
  11   3   6   21.35    5.45
  13  -3   6   15.40    3.98
  13  -3   6   -3.93    5.21
 -13  -3  -6    5.16    3.09
 -13  -3  -6   -0.68    3.35
  13  -3   6    9.05    3.41
 -13   3  -6    6.61    3.43
  13   3   6    1.95    5.20
  13   3   6    3.31    3.23
  15  -3   6   24.46    4.87
  15  -3   6   22.92    4.98
 -15  -3  -6   20.15    4.53
  15  -3   6   15.41    9.17
  15   3   6   28.33    5.69
  15   3   6   19.96    7.07
 -15   3  -6   22.66    5.08
 -17  -3  -6    3.64    3.99
  17  -3   6    1.41    4.45
 -17   3  -6    0.00    3.75
  17   3   6   -1.87    7.12
  17   3   6    5.78    5.00
 -20  -4   6   -2.15    3.82
  20  -4  -6   -2.21    3.83
  20  -4  -6   -0.48    4.95
  20   4  -6    5.15    4.14
 -20   4   6   -2.30    3.47
 -20   4   6    0.19    4.01
  20   4  -6   -2.89    3.48
 -18  -4   6    3.95    4.30
  18  -4  -6    2.30    3.95
 -18  -4   6    3.56    3.82
  18  -4  -6    5.11    4.83
 -18   4   6    5.75    3.63
  18   4  -6    4.06    4.10
 -18   4   6    4.11    3.82
  18   4  -6    0.82    3.74
  16  -4  -6    8.30    4.28
 -16  -4   6   -3.83    2.89
 -16  -4   6    0.23    3.34
  16  -4  -6   -1.08    2.84
  16  -4  -6    1.21    3.14
 -16   4   6   -0.62    3.00
 -16   4   6    0.06    3.05
  16   4  -6    3.64    3.21
  16   4  -6    0.62    3.28
 -14  -4   6   87.54    7.10
  14  -4  -6   71.79    7.13
  14  -4  -6   76.73    7.35
 -14  -4   6   60.14    6.31
  14  -4  -6   70.17    6.45
 -14   4   6   74.25    6.43
  14   4  -6   71.51    6.50
  14   4  -6   85.73    6.79
 -14   4   6   75.05    6.97
  12  -4  -6  173.22    9.78
  12  -4  -6  157.93    9.61
  12  -4  -6  162.36    9.08
 -12  -4   6  163.35    9.08
 -12  -4   6  161.93    9.26
 -12   4   6  162.39    9.18
  12   4  -6  166.09    9.05
 -12   4   6  161.74    8.47
  12   4  -6  170.00    8.75
  10  -4  -6   19.18    3.40
 -10  -4   6   16.25    3.29
 -10  -4   6   12.74    2.90
  10  -4  -6   17.72    3.16
  10  -4  -6   13.98    3.35
  10   4  -6   16.94    2.70
  10   4  -6   11.14    2.81
 -10   4   6   15.46    2.65
 -10   4   6    9.27    2.75
  -8  -4   6   45.39    3.15
   8  -4  -6   48.04    3.51
  -8  -4   6   43.33    4.25
   8  -4  -6   45.23    4.82
   8  -4  -6   46.68    4.46
   8  -4  -6   40.26    4.71
  -8  -4   6   50.76    4.72
  -8   4   6   47.52    3.58
  -8   4   6   37.74    4.04
   8   4  -6   44.25    3.66
   8   4  -6   35.11    4.14
  -6  -4   6    7.56    1.60
   6  -4  -6    3.99    2.56
  -6  -4   6    5.33    2.28
   6  -4  -6   10.43    2.50
   6  -4  -6    9.41    2.29
   6  -4  -6    5.78    1.81
   6   4  -6   10.06    1.71
   6   4  -6    7.89    2.41
   6   4  -6    4.90    2.07
  -6   4   6   11.16    1.83
  -6   4   6    5.26    2.16
   4  -4  -6  123.14    6.81
  -4  -4   6  123.07    6.03
   4  -4  -6  121.58    6.19
   4  -4  -6  130.72    7.59
  -4  -4   6  125.00    6.90
   4  -4  -6  127.34    6.55
  -4   4   6  129.53    5.48
   4   4  -6  120.97    7.27
   4   4  -6  129.26    5.48
  -4   4   6  120.76    6.67
   4   4  -6  125.97    6.82
  -2  -4   6  616.24   23.06
   2  -4  -6  614.48   23.27
   2  -4  -6  616.64   23.07
   2  -4  -6  607.62   24.44
  -2  -4   6  588.62   23.36
   2  -4  -6  622.45   23.46
  -2   4   6  621.78   22.05
  -2   4   6  594.79   23.41
   2   4  -6  608.06   24.38
   2   4  -6  602.94   23.54
   0  -4  -6    9.20    2.24
   0  -4   6   10.53    2.33
   0  -4   6    6.60    1.91
   0  -4  -6   12.38    3.31
   0   4  -6    3.98    2.22
   0   4   6   10.53    1.54
   0   4   6    9.74    3.64
   0   4   6    9.24    1.82
   0   4   6    5.51    1.95
   0   4  -6   13.15    3.44
   2  -4   6  239.79   11.83
  -2  -4  -6  215.75   10.48
   2  -4   6  229.15   10.57
  -2  -4  -6  233.12   11.67
   2  -4   6  234.08   10.01
  -2  -4  -6  235.34    9.38
   2   4   6  240.08   10.70
  -2   4  -6  228.92   11.78
  -2   4  -6  218.74   10.60
   2   4   6  225.02    9.50
   2   4   6  241.79   12.04
  -2   4  -6  238.36    9.12
   4  -4   6  106.48    8.14
  -4  -4  -6   86.23    4.68
   4  -4   6   82.44    4.82
  -4  -4  -6   77.45    5.70
  -4  -4  -6   92.08    7.61
   4  -4   6   75.93    5.58
   4   4   6   73.23    4.29
  -4   4  -6   77.35    4.38
  -4   4  -6   88.65    7.71
   4   4   6   69.91    5.46
   4   4   6  105.06    8.10
  -4   4  -6   83.33    5.68
   6  -4   6   -2.09    2.12
  -6  -4  -6    0.39    1.73
   6  -4   6    8.26    4.05
  -6  -4  -6   -3.62    2.08
   6   4   6   -1.20    3.45
  -6   4  -6   -1.90    2.10
  -6   4  -6   -0.70    2.24
   6   4   6   -0.10    2.20
  -6   4  -6   -2.70    1.59
   8  -4   6   42.38    6.84
  -8  -4  -6   28.46    4.28
   8  -4   6   19.11    4.03
  -8  -4  -6   27.92    3.67
   8  -4   6   30.28    3.62
  -8   4  -6   20.64    3.90
   8   4   6   27.62    5.74
   8   4   6   30.13    4.24
  10  -4   6   -2.65    2.45
  10  -4   6   -1.70    4.57
  10  -4   6    2.41    2.90
 -10  -4  -6   -0.77    2.35
 -10  -4  -6   -0.94    2.99
  10   4   6    3.36    3.23
  10   4   6   -0.04    4.29
 -10   4  -6   -2.15    2.68
  12  -4   6    1.04    3.27
  12  -4   6    0.49    9.61
 -12  -4  -6    2.74    3.60
  12  -4   6    2.72    3.15
 -12  -4  -6    3.26    3.01
  12   4   6    0.50    4.64
 -12   4  -6    1.44    3.06
  12   4   6    5.78    3.72
  14  -4   6   13.64    4.69
 -14  -4  -6   22.18    5.15
  14  -4   6   21.33    4.95
 -14  -4  -6   10.15    4.01
 -14   4  -6   14.41    4.57
  14   4   6   10.83    4.46
  14   4   6   16.66    7.02
 -16  -4  -6    6.24    4.32
  16  -4   6    3.33    4.32
  16   4   6    4.83    4.60
 -16   4  -6    0.91    3.29
  16   4   6   -1.81    8.00
 -19  -5   6   -1.03    4.65
  19  -5  -6    4.47    4.24
  19  -5  -6    8.04    5.84
 -19  -5   6    3.36    3.66
  19   5  -6   -6.86    3.56
 -19   5   6   -0.51    3.54
  19   5  -6   -1.37    4.69
 -19   5   6   -0.25    3.97
 -17  -5   6   13.74    4.16
  17  -5  -6   10.37    4.92
  17  -5  -6    9.43    4.05
 -17  -5   6    7.86    4.16
  17  -5  -6   15.92    6.08
 -17   5   6    9.20    4.21
 -17   5   6   12.75    4.06
  17   5  -6    7.03    4.53
  17   5  -6   20.25    4.75
 -15  -5   6   94.58    8.40
  15  -5  -6   77.61    7.53
  15  -5  -6   93.30    8.79
  15  -5  -6  100.56    9.55
 -15  -5   6   76.52    7.72
  15   5  -6   91.51    8.53
 -15   5   6   92.99    7.43
  15   5  -6   96.90    7.82
 -15   5   6   77.16    7.52
  13  -5  -6   17.85    4.04
  13  -5  -6   22.20    4.95
  13  -5  -6   15.09    3.71
 -13  -5   6   13.53    3.56
 -13  -5   6   12.22    3.81
  13   5  -6    8.85    3.94
 -13   5   6   18.29    3.75
 -13   5   6   13.29    3.59
  13   5  -6   18.21    3.78
  11  -5  -6   42.12    5.85
  11  -5  -6   36.29    4.55
  11  -5  -6   39.39    5.07
 -11  -5   6   36.00    4.89
 -11  -5   6   35.68    4.79
 -11   5   6   37.82    4.10
  11   5  -6   35.33    5.16
  11   5  -6   35.99    4.35
 -11   5   6   40.36    4.94
  -9  -5   6  265.83   12.79
   9  -5  -6  285.74   13.75
   9  -5  -6  261.53   13.07
   9  -5  -6  263.05   12.56
  -9   5   6  278.22   11.75
  -9   5   6  251.98   12.47
   9   5  -6  279.70   13.30
   9   5  -6  277.44   11.80
   9   5  -6  272.84   12.78
  -7  -5   6   55.87    3.83
   7  -5  -6   59.40    5.62
   7  -5  -6   60.27    6.19
   7  -5  -6   58.14    5.08
   7  -5  -6   61.66    4.28
  -7  -5   6   57.54    5.41
   7   5  -6   58.48    4.16
  -7   5   6   64.48    4.13
   7   5  -6   59.45    5.49
   7   5  -6   60.99    5.94
  -7   5   6   47.70    4.81
  -5  -5   6    4.85    2.40
   5  -5  -6    3.25    2.11
   5  -5  -6    3.27    1.88
  -5  -5   6    7.78    2.01
   5  -5  -6    5.70    2.43
   5  -5  -6    0.90    2.85
   5   5  -6   10.63    3.39
   5   5  -6    5.05    1.83
   5   5  -6    5.96    2.36
  -5   5   6    3.36    2.19
  -5   5   6    6.69    1.76
  -3  -5   6   49.49    4.87
   3  -5  -6   78.76    7.00
   3  -5  -6   58.97    4.75
   3  -5  -6   67.24    4.71
   3  -5  -6   60.80    4.89
  -3  -5   6   61.96    4.36
  -3   5   6   68.68    5.52
   3   5  -6   66.66    6.32
   3   5  -6   61.06    5.10
  -3   5   6   62.55    3.80
   1  -5  -6   12.41    2.58
   1  -5  -6   10.58    3.73
  -1  -5   6    7.65    2.39
   1  -5  -6    9.17    2.45
  -1  -5   6   11.22    2.43
   1  -5  -6   11.09    2.28
  -1   5   6    8.28    2.48
   1   5  -6    9.10    3.64
   1   5  -6    7.68    2.62
  -1   5   6   12.01    1.94
  -1  -5  -6   25.83    2.95
  -1  -5  -6   29.60    3.29
  -1  -5  -6   17.82    3.28
  -1  -5  -6   40.87    5.53
   1  -5   6   23.64    3.39
   1  -5   6   29.87    3.42
  -1   5  -6   24.52    5.00
   1   5   6   29.28    5.13
   1   5   6   28.57    2.66
   1   5   6   22.57    3.43
  -1   5  -6   32.49    3.99
  -3  -5  -6  148.74    6.90
  -3  -5  -6  153.32    9.96
   3  -5   6  152.56    8.27
  -3  -5  -6  146.80    8.39
  -3  -5  -6  144.23    7.22
   3  -5   6  138.06    7.33
   3   5   6  127.77    7.94
   3   5   6  157.83    7.10
  -3   5  -6  149.67    8.34
   3   5   6  158.38   10.24
  -3   5  -6  153.14   10.13
  -5  -5  -6  186.26    9.74
  -5  -5  -6  186.43    8.55
   5  -5   6  161.90    9.43
  -5   5  -6  167.88    9.49
   5   5   6  194.54   11.37
  -5   5  -6  184.09   12.93
   5   5   6  175.31    9.53
   7  -5   6  103.43    7.46
  -7  -5  -6   96.32    6.36
  -7  -5  -6  115.16    7.78
   7   5   6  125.71   10.47
  -7   5  -6  123.37    7.98
   7   5   6  106.83    7.46
  -9  -5  -6  117.48    8.42
  -9  -5  -6  111.67    7.27
   9  -5   6  115.65    8.16
   9   5   6  118.93    8.18
   9   5   6  118.11   11.20
  -9   5  -6  105.22    8.04
  11  -5   6   18.57    4.56
 -11  -5  -6   14.65    3.73
 -11  -5  -6   12.41    4.24
 -11   5  -6    6.50    3.84
  11   5   6   17.10    5.93
  11   5   6    9.77    3.76
  13  -5   6    7.81    4.08
 -13  -5  -6    0.57    4.05
 -13  -5  -6    6.69    3.84
  13   5   6    3.71    3.62
  13   5   6    6.20    6.72
 -13   5  -6   10.44    4.30
  15  -5   6    4.29    4.26
 -15  -5  -6   12.48    5.02
 -15  -5  -6    7.39    4.64
  15   5   6   12.39    5.09
 -15   5  -6    6.91    4.85
  18  -6  -6    6.68    4.16
 -18  -6   6   16.33    5.44
  18  -6  -6   11.88    6.82
 -18  -6   6   13.07    4.72
 -18   6   6   14.00    5.06
  18   6  -6   16.58    6.26
 -18   6   6   16.04    4.62
  18   6  -6   15.51    5.58
 -16  -6   6   27.28    5.30
  16  -6  -6   40.24    7.64
 -16  -6   6   44.84    6.46
  16  -6  -6   41.32    6.22
  16   6  -6   36.48    6.73
 -16   6   6   35.24    5.58
  16   6  -6   53.71    6.43
 -16   6   6   36.02    5.81
 -14  -6   6   59.02    6.71
  14  -6  -6   49.43    6.17
  14  -6  -6   62.56    7.37
 -14  -6   6   61.53    7.10
  14  -6  -6   60.79    7.96
  14   6  -6   75.82    6.92
 -14   6   6   49.00    6.14
 -14   6   6   68.37    6.38
  14   6  -6   55.93    7.18
  12  -6  -6    0.96    3.00
  12  -6  -6    7.20    4.75
 -12  -6   6    5.50    3.75
  12  -6  -6    3.78    3.30
  12   6  -6    1.54    3.81
 -12   6   6    2.14    2.87
  12   6  -6   -1.11    3.15
  12   6  -6    8.25    3.37
 -12   6   6    3.52    2.92
 -10  -6   6   22.26    4.45
  10  -6  -6   38.69    5.97
  10  -6  -6   33.61    4.82
  10  -6  -6   28.15    4.95
  10   6  -6   25.58    5.26
  10   6  -6   31.61    4.92
 -10   6   6   27.80    4.39
  10   6  -6   42.73    4.85
 -10   6   6   33.70    4.07
  -8  -6   6   77.51    6.93
   8  -6  -6   91.59    7.81
   8  -6  -6   96.30    7.24
   8  -6  -6  103.22    8.88
   8   6  -6   75.70    6.62
  -8   6   6   78.68    5.50
  -8   6   6   80.47    6.85
   8   6  -6   78.49    7.48
   6  -6  -6   78.10    5.45
  -6  -6   6   70.96    5.02
  -6  -6   6   58.75    5.95
   6  -6  -6   78.60    6.79
   6  -6  -6   71.21    6.00
   6  -6  -6   87.70    8.16
  -6   6   6   74.88    6.39
   6   6  -6   82.96    6.66
  -6   6   6   78.54    5.10
   6   6  -6   68.90    7.45
   4  -6  -6   64.53    7.05
   4  -6  -6   57.34    5.63
   4  -6  -6   52.72    4.94
  -4  -6   6   56.53    4.55
  -4  -6   6   49.08    5.20
   4  -6  -6   59.30    5.29
  -4   6   6   58.57    6.52
   4   6  -6   48.39    5.13
   4   6  -6   59.98    6.99
  -4   6   6   48.01    5.08
   2  -6  -6    5.68    2.29
  -2  -6   6    1.07    2.28
  -2  -6   6    0.20    1.96
   2  -6  -6    2.49    2.34
   2  -6  -6    1.21    3.59
   2  -6  -6    3.29    2.58
   2   6  -6    3.65    3.59
  -2   6   6    0.29    2.23
   2   6  -6    3.50    2.64
   0  -6  -6  297.30   14.91
   0  -6  -6  288.92   11.99
   0  -6  -6  273.68   12.91
   0  -6   6  271.66   12.46
   0  -6   6  283.62   12.58
   0  -6  -6  283.79   12.50
   0   6  -6  271.20   13.07
   0   6   6  256.03   12.72
   0   6  -6  272.09   14.62
   2  -6   6   57.26    5.46
  -2  -6  -6   60.56    4.60
  -2  -6  -6   53.41    5.52
   2  -6   6   50.84    4.82
  -2  -6  -6   57.02    4.84
   2   6   6   44.83    5.05
  -2   6  -6   56.89    5.79
  -2   6  -6   69.83    7.98
   4  -6   6   83.42    6.84
  -4  -6  -6   62.11    6.12
   4   6   6   55.22    5.81
  -4   6  -6   68.07    6.31
  -6  -6  -6   39.86    5.30
   6  -6   6   34.66    4.89
  -6   6  -6   43.83    5.23
   6   6   6   33.33    4.87
   6   6   6   52.57    9.24
  -8  -6  -6   22.15    4.80
   8  -6   6   39.02    5.28
   8   6   6   28.46    4.64
  -8   6  -6   31.97    5.17
   8   6   6   24.47    7.67
  10  -6   6   36.72    5.61
 -10  -6  -6   39.04    5.84
  10   6   6   39.75    5.75
 -10   6  -6   44.84    5.93
  12  -6   6    5.02    4.16
 -12  -6  -6    5.65    4.27
  12   6   6   -0.86    3.45
 -12   6  -6    0.95    3.74
 -14  -6  -6   22.11    6.02
  14  -6   6   16.54    4.70
  14   6   6   20.19    5.34
 -14   6  -6   18.65    5.69
 -17  -7   6    7.82    5.05
 -17  -7   6    5.85    4.15
  17  -7  -6    4.68    4.51
  17  -7  -6    3.00    6.90
 -17   7   6    1.18    4.13
  17   7  -6   -2.49    6.03
  15  -7  -6   -4.86    5.39
 -15  -7   6   -3.63    3.80
  15  -7  -6    1.43    3.36
  15   7  -6   -3.16    5.35
 -15   7   6    1.89    3.83
  15   7  -6    3.92    4.58
  13  -7  -6    5.29    4.13
 -13  -7   6    0.39    3.65
  13  -7  -6   10.01    5.88
  13  -7  -6    5.27    3.92
 -13   7   6   10.40    3.92
  13   7  -6    4.99    5.14
  13   7  -6    5.66    4.36
  11  -7  -6   -0.67    3.51
  11  -7  -6   10.03    5.54
  11  -7  -6    8.58    3.63
 -11  -7   6    9.18    3.99
  11   7  -6    8.01    3.99
 -11   7   6    2.68    3.16
  11   7  -6    3.60    4.72
   9  -7  -6   33.71    5.54
   9  -7  -6   34.15    4.94
  -9  -7   6   28.75    4.74
   9  -7  -6   26.68    6.16
   9   7  -6   31.37    5.18
  -9   7   6   31.43    4.72
   9   7  -6   29.92    6.83
   7  -7  -6    5.36    4.40
   7  -7  -6    2.69    3.42
  -7  -7   6    1.00    2.91
   7  -7  -6    3.09    3.01
   7   7  -6    7.34    4.75
   7   7  -6    3.70    3.12
  -7   7   6    5.74    2.97
   5  -7  -6    2.21    2.97
   5  -7  -6    7.40    3.58
  -5  -7   6    1.28    2.56
   5  -7  -6    2.48    2.73
   5  -7  -6    5.11    4.76
   5   7  -6    5.89    3.30
  -5   7   6   -0.59    2.46
   5   7  -6    1.26    4.28
   3  -7  -6  141.24    8.19
   3  -7  -6  128.52   11.09
  -3  -7   6  120.23    8.52
   3  -7  -6  147.66    8.92
  -3  -7   6  127.38    7.71
   3  -7  -6  153.43    8.26
   3   7  -6  129.93    8.69
   3   7  -6  156.33   10.89
  -3   7   6  125.31    8.19
   1  -7  -6  156.45    8.90
  -1  -7   6  128.48    8.36
   1  -7  -6  168.68   12.02
   1  -7  -6  136.48    8.49
  -1  -7   6  150.90    8.44
   1  -7  -6  159.23    8.31
  -1   7   6  135.95    8.59
   1   7  -6  142.00    9.39
   1   7  -6  154.38   11.32
   1  -7   6   27.12    4.02
  -1  -7  -6   21.30    3.99
   1  -7   6   29.07    4.25
  -1   7  -6   22.67    6.50
  -1   7  -6   23.65    4.44
   1   7   6   16.37    3.74
  -3  -7  -6    5.26    3.17
   3  -7   6   -1.78    2.77
   3   7   6    4.87    2.85
  -3   7  -6    0.30    3.15
   5  -7   6   13.63    4.19
  -5  -7  -6    9.44    3.60
   5   7   6   13.94    3.61
  -5   7  -6    6.88    3.58
  -7  -7  -6   30.08    5.43
   7  -7   6   30.50    5.40
  -7   7  -6   36.25    5.40
   7   7   6   34.84    5.24
   9  -7   6   40.04    6.05
  -9  -7  -6   40.96    6.34
  -9   7  -6   47.68    6.47
   9   7   6   46.57    6.19
  11  -7   6    6.21    4.36
 -11  -7  -6    9.21    4.81
 -11   7  -6   17.53    5.27
  11   7   6   10.92    4.64
  13  -7   6   -1.18    3.98
 -13  -7  -6    2.75    4.79
 -13   7  -6   11.94    5.17
  13   7   6    6.19    4.21
  16  -8  -6    6.16    7.76
  16  -8  -6   12.04    4.73
 -16  -8   6   12.91    5.92
 -16   8   6    5.38    4.73
  16   8  -6    6.36    5.35
  16   8  -6    8.04    7.24
 -14  -8   6    5.55    4.82
  14  -8  -6    7.14    6.77
  14  -8  -6   -1.79    3.76
  14   8  -6   -2.66    4.49
 -14   8   6    3.20    3.74
  14   8  -6    1.92    6.30
  12  -8  -6    9.70    6.63
 -12  -8   6    3.74    4.31
  12  -8  -6   -0.19    3.62
  12  -8  -6    6.51    4.99
  12   8  -6    0.74    4.20
  12   8  -6    4.39    6.05
 -12   8   6    4.32    3.70
  10  -8  -6    0.89    4.18
 -10  -8   6    9.54    4.17
  10  -8  -6    0.04    3.65
  10  -8  -6    4.50    5.93
 -10   8   6    5.36    3.66
  10   8  -6    9.10    4.38
  10   8  -6    8.88    5.90
   8  -8  -6   54.20    7.03
   8  -8  -6   57.83    8.70
  -8  -8   6   45.79    6.23
   8  -8  -6   59.64    6.72
  -8   8   6   63.48    6.78
   8   8  -6   61.84    7.18
   8   8  -6   63.09    8.84
   6  -8  -6   13.87    4.24
   6  -8  -6   21.50    6.64
   6  -8  -6   15.14    4.61
  -6  -8   6   15.75    4.17
   6   8  -6   16.37    6.23
  -6   8   6   16.72    4.23
   6   8  -6   15.24    4.58
   4  -8  -6   45.32    5.43
   4  -8  -6   45.25    5.44
  -4  -8   6   55.49    6.18
   4  -8  -6   56.03    9.16
   4  -8  -6   43.70    5.95
   4   8  -6   49.46    6.29
   4   8  -6   34.83    6.79
  -4   8   6   45.75    5.44
  -2  -8   6   82.42    6.71
   2  -8  -6   78.00    7.10
   2  -8  -6   88.78    7.43
  -2  -8   6   69.95    6.91
   2  -8  -6   81.82    6.70
   2   8  -6   87.20    8.01
  -2   8   6   83.40    7.32
   2   8  -6   77.74    9.68
   0  -8   6    8.15    3.09
   0  -8   6    3.75    3.29
   0  -8  -6    5.71    3.35
   0   8  -6   10.99    5.48
   0   8  -6    6.13    4.00
   0   8   6    1.06    2.90
   2  -8   6  140.88    9.06
  -2  -8  -6  145.08    9.28
  -2   8  -6  139.78    9.83
   2   8   6  133.10    9.26
   4  -8   6   11.62    4.19
  -4  -8  -6   14.64    4.26
   4   8   6    3.48    3.30
  -4   8  -6   16.17    4.67
   6  -8   6   11.12    4.34
  -6  -8  -6    2.42    3.44
   6   8   6    4.26    3.59
  -6   8  -6   10.57    4.39
   8  -8   6    5.04    4.14
  -8  -8  -6    2.27    4.03
   8   8   6   -1.99    3.55
  -8   8  -6    0.72    4.13
 -10  -8  -6   14.82    5.54
  10  -8   6   15.13    5.45
 -10   8  -6   13.74    5.07
  10   8   6   16.87    4.64
 -12  -8  -6    3.06    5.24
  12  -8   6   -5.16    3.88
 -12   8  -6   -5.51    4.51
  12   8   6    0.40    4.23
  13  -9  -6   25.23    9.36
  13  -9  -6   25.94    6.06
 -13  -9   6   17.21    6.26
  13   9  -6   19.79    8.46
 -13   9   6   24.90    5.54
  13   9  -6   19.63    6.16
  11  -9  -6    4.55    4.46
 -11  -9   6    3.56    3.69
  11  -9  -6   17.20    8.29
 -11   9   6    1.57    4.04
  11   9  -6    6.21    5.11
  11   9  -6    8.73    7.56
   9  -9  -6   15.03   10.26
  -9  -9   6    2.74    3.75
   9  -9  -6    7.71    4.24
   9   9  -6    3.58    4.53
  -9   9   6    7.53    3.97
   9   9  -6   11.65    7.33
   7  -9  -6    4.08    4.34
   7  -9  -6    8.67    4.12
  -7  -9   6    3.57    3.80
  -7   9   6    7.29    3.99
   7   9  -6    2.79    4.59
   7   9  -6   -1.30    6.20
  -5  -9   6   -2.07    2.88
   5  -9  -6    2.65    3.77
   5  -9  -6    1.62    4.22
  -5   9   6    0.47    3.27
   5   9  -6   -0.71    3.70
   5   9  -6   -0.20    5.88
   3  -9  -6   -2.35    3.25
   3  -9  -6   -1.69    3.97
  -3  -9   6    1.15    3.39
   3  -9  -6   -0.69    3.51
   3   9  -6   -0.02    3.85
  -3   9   6    0.21    3.33
   3   9  -6    0.16    6.23
  -1  -9   6    8.42    3.77
   1  -9  -6   14.79    4.19
  -1  -9   6    7.27    3.54
  -1   9   6    9.46    3.84
   1   9  -6   11.37    4.48
  -1  -9  -6   51.44    6.64
   1  -9   6   65.91    7.00
  -1   9  -6   62.69    7.58
   1   9   6   45.39    6.02
   3  -9   6   84.02    7.96
  -3  -9  -6   79.70    8.18
   3   9   6   77.44    7.85
  -3   9  -6   70.37    8.10
  -5  -9  -6   84.03    8.50
   5  -9   6   79.37    8.59
  -5   9  -6   84.63    8.56
   5   9   6   75.61    8.11
   7  -9   6    4.54    4.74
  -7  -9  -6    4.26    4.16
   7   9   6    7.63    4.18
  -7   9  -6    1.31    4.34
   9  -9   6   21.36    6.16
  -9  -9  -6   12.30    5.69
   9   9   6   21.90    5.81
  -9   9  -6   25.42    6.21
 -10 -10   6    0.18    4.03
  10 -10  -6    3.44    4.65
  10  10  -6    5.10    8.20
 -10  10   6    1.69    4.22
  10  10  -6   -8.53    5.17
   8 -10  -6    6.03    4.82
  -8 -10   6    0.79    4.23
   8  10  -6   -6.04    5.05
   8  10  -6   -8.20    7.39
  -8  10   6    0.11    4.56
   6 -10  -6    2.39    4.06
  -6 -10   6    3.27    3.82
   6  10  -6   -0.86    7.45
   6  10  -6    4.38    5.11
  -6  10   6    4.19    4.04
  -4 -10   6   13.00    4.97
   4 -10  -6   16.32    5.13
   4  10  -6   17.06    5.80
  -4  10   6   16.78    4.70
  -2 -10   6   12.19    4.66
   2 -10  -6   22.49    5.73
   2  10  -6   10.71    5.56
  -2  10   6   12.53    4.88
   0 -10  -6    6.80    4.46
   0 -10   6    6.42    5.55
   0  10   6    6.73    4.37
   0  10  -6    3.42    5.23
   2 -10   6   31.49    6.04
  -2 -10  -6   41.97    6.39
  -2  10  -6   23.86    6.36
   2  10   6   24.94    5.46
   4 -10   6    7.05    4.76
  -4 -10  -6   11.40    4.82
  -4  10  -6    6.37    5.13
   4  10   6   10.53    4.52
   6 -10   6    9.58    5.37
  -6 -10  -6   27.63    6.13
  -6  10  -6   20.67    6.03
   6  10   6   14.47    5.05
  22   0  -7   -2.67    3.51
  22   0  -7   -2.80    3.68
 -22   0   7    3.36    4.28
 -20   0   7   -2.40    3.37
  20   0  -7    1.17    3.34
  20   0  -7    3.29    3.63
 -18   0   7   -0.21    2.90
  18   0  -7   -0.58    2.67
  18   0  -7   -0.19    2.78
  16   0  -7    2.40    2.11
 -16   0   7    0.68    2.83
 -16   0   7   -2.00    2.46
 -14   0   7    2.76    2.28
 -14   0   7    0.67    2.24
  14   0  -7    1.05    1.93
  14   0  -7    0.23    2.08
  14   0  -7   -2.28    1.86
  12   0  -7   -2.70    1.46
  12   0  -7    0.67    1.17
 -12   0   7    2.31    2.07
  12   0  -7    1.84    1.72
 -12   0   7    0.85    1.64
  12   0  -7    2.13    1.18
 -12   0   7    3.32    1.95
 -10   0   7    0.75    1.75
 -10   0   7   -0.35    1.36
 -10   0   7    1.31    1.49
 -10   0   7    1.06    1.58
  -8   0   7   -0.85    1.36
  -8   0   7    0.33    1.29
  -8   0   7    3.18    1.49
  -8   0   7    3.06    1.61
  -6   0   7    0.32    1.35
  -6   0   7    0.97    1.27
  -6   0   7    0.45    1.09
  -6   0   7   -0.21    1.24
  -4   0   7    0.59    1.29
   4   0  -7    0.68    1.00
   4   0  -7    0.83    0.98
  -4   0   7    0.89    1.34
   4   0  -7    0.45    0.95
  -4   0   7    1.60    1.13
   2   0  -7   -1.56    1.31
   2   0  -7   -0.18    1.24
  -2   0   7   -1.23    0.96
   2   0  -7    0.61    1.00
  -2   0   7    0.35    1.17
   0   0  -7    0.30    1.72
   0   0   7    1.39    1.25
   0   0   7    3.08    1.21
   0   0  -7    2.75    1.17
   0   0  -7   -0.30    1.31
  -2   0  -7    2.51    2.30
   2   0   7   -0.89    1.24
  -2   0  -7   -0.30    1.21
   2   0   7   -0.26    1.10
  -2   0  -7    0.72    1.44
  -4   0  -7    3.37    2.80
  -4   0  -7    1.02    1.57
  -4   0  -7   -0.97    1.53
   4   0   7   -3.75    2.62
   4   0   7    0.19    1.39
   4   0   7   -1.32    1.42
  -6   0  -7    0.91    1.73
   6   0   7    4.18    2.96
  -6   0  -7   -1.64    2.52
   6   0   7   -0.02    1.57
   6   0   7    1.41    1.62
  -6   0  -7    0.23    1.59
   8   0   7   -0.50    1.71
   8   0   7    1.65    3.42
   8   0   7    3.37    2.18
  -8   0  -7   -0.91    1.84
  -8   0  -7   -2.51    1.94
  10   0   7   -4.74    3.13
  10   0   7    0.53    2.24
  10   0   7   -1.42    2.15
 -10   0  -7    1.09    2.46
 -10   0  -7   -2.75    2.26
 -12   0  -7   -0.30    2.44
  12   0   7    0.29    2.84
  12   0   7   -1.71    4.45
  14   0   7    2.15    5.68
 -14   0  -7    0.23    3.08
  14   0   7   -1.05    3.26
 -16   0  -7   -1.75    3.23
  16   0   7   -2.11    3.89
  16   0   7   -3.57    7.98
  21  -1  -7    8.78    4.21
  21  -1  -7    9.98    3.94
 -21  -1   7   11.78    4.79
 -21   1   7   12.44    4.52
  21   1  -7   22.45    5.06
  21   1  -7    9.02    4.02
  19  -1  -7    1.17    3.12
 -19  -1   7    2.93    3.26
  19   1  -7   -1.57    3.34
 -19   1   7    1.14    3.55
  19   1  -7    0.18    2.94
 -19   1   7    1.75    3.39
  17  -1  -7    3.75    2.86
 -17  -1   7    3.02    2.95
  17  -1  -7    4.53    3.56
  17  -1  -7   10.00    3.51
 -17   1   7    3.10    3.20
 -17   1   7    0.83    2.51
  17   1  -7    5.69    2.74
  17   1  -7    2.84    2.83
  15  -1  -7    2.69    2.33
  15  -1  -7   -0.47    2.42
 -15  -1   7    2.48    2.59
 -15  -1   7    1.43    2.75
  15  -1  -7    3.33    2.37
  15   1  -7    0.88    2.64
 -15   1   7    5.31    2.60
 -15   1   7   -0.28    2.63
  15   1  -7    4.55    2.16
  13  -1  -7   34.08    3.79
 -13  -1   7   42.72    4.14
  13  -1  -7   38.38    3.48
  13  -1  -7   28.76    3.84
 -13  -1   7   44.89    4.72
 -13  -1   7   36.85    4.23
  13   1  -7   33.46    3.68
  13   1  -7   33.27    3.17
 -13   1   7   38.37    4.06
  13   1  -7   38.79    3.06
 -13   1   7   33.08    4.15
  13   1  -7   36.53    3.59
 -11  -1   7   69.44    4.69
 -11  -1   7   66.95    4.21
 -11  -1   7   67.81    4.69
  11  -1  -7   62.47    4.58
  11  -1  -7   60.81    4.70
  11  -1  -7   65.40    3.72
 -11  -1   7   76.62    4.91
  11  -1  -7   68.08    3.77
 -11   1   7   69.77    4.62
 -11   1   7   67.81    4.98
 -11   1   7   69.78    4.06
  -9  -1   7   15.80    2.62
  -9  -1   7   19.49    2.67
   9  -1  -7   12.74    1.39
  -9  -1   7   24.83    2.48
   9  -1  -7   14.72    1.40
  -9  -1   7   18.45    2.59
  -9   1   7   15.66    2.58
  -9   1   7   22.04    2.47
  -9   1   7   19.11    2.22
  -9   1   7   18.71    2.57
  -7  -1   7 1000.35   37.05
   7  -1  -7  991.45   35.76
  -7  -1   7 1026.71   36.69
   7  -1  -7  998.09   35.77
  -7  -1   7 1014.13   36.92
   7  -1  -7 1030.69   36.65
  -7  -1   7 1033.23   36.70
  -7   1   7 1005.74   37.08
  -7   1   7 1032.71   36.49
  -7   1   7 1033.98   36.99
   5  -1  -7   30.65    2.63
   5  -1  -7   30.92    2.30
  -5  -1   7   30.33    2.92
   5  -1  -7   35.30    2.51
  -5  -1   7   30.83    2.66
  -5  -1   7   31.88    2.38
  -5   1   7   29.89    2.13
   5   1  -7   27.95    1.56
  -5   1   7   29.72    2.76
   5   1  -7   27.20    1.51
   5   1  -7   28.11    2.65
  -5   1   7   28.65    2.69
   3  -1  -7  194.77    8.39
   3  -1  -7  194.57    8.39
  -3  -1   7  206.77    8.33
  -3  -1   7  196.94    8.51
  -3   1   7  204.07    8.30
  -3   1   7  207.81    8.41
   3   1  -7  197.97    8.17
   3   1  -7  188.32    8.27
  -1  -1   7  278.78   11.38
   1  -1  -7  285.93   11.44
   1  -1  -7  277.84   11.79
   1   1  -7  268.11   11.70
  -1   1   7  288.37   11.25
  -1   1   7  286.11   11.18
   1   1  -7  285.93   11.11
   1  -1   7   46.80    3.35
   1  -1   7   44.40    2.73
  -1  -1  -7   55.18    4.84
  -1  -1  -7   48.06    2.75
  -1  -1  -7   46.06    3.69
  -1   1  -7   47.99    4.33
   1   1   7   43.59    3.37
  -1   1  -7   47.43    3.30
   1   1   7   44.13    3.09
  -1   1  -7   51.64    3.55
   3  -1   7    7.77    1.97
  -3  -1  -7    9.58    2.11
   3  -1   7    9.87    3.08
  -3  -1  -7    4.77    2.47
  -3  -1  -7    6.92    1.55
   3  -1   7    9.21    1.66
  -3   1  -7    8.44    2.94
   3   1   7    8.14    3.09
  -3   1  -7    5.54    1.87
  -3   1  -7    5.67    1.78
   3   1   7    5.87    1.72
   3   1   7    7.91    1.68
   5  -1   7  174.21    8.44
   5  -1   7  183.19    8.16
  -5  -1  -7  180.97    8.45
  -5  -1  -7  183.51    8.17
   5  -1   7  206.28   10.23
  -5  -1  -7  185.38    9.83
  -5   1  -7  183.91    8.64
   5   1   7  187.62    8.54
   5   1   7  177.30    8.04
  -5   1  -7  170.82    8.04
   5   1   7  182.29    9.59
  -5   1  -7  194.15    9.90
   7  -1   7   12.60    3.90
   7  -1   7   16.00    2.70
   7  -1   7   11.88    2.43
  -7  -1  -7   14.40    2.75
  -7  -1  -7    9.72    2.43
   7   1   7   17.31    4.28
  -7   1  -7   31.00    5.80
  -7   1  -7   13.80    2.46
   7   1   7   11.41    2.14
   7   1   7   15.85    2.85
  -7   1  -7    9.96    2.63
   9  -1   7   15.63    4.54
   9  -1   7   11.40    2.85
   9  -1   7   14.58    3.13
  -9  -1  -7   13.06    2.96
  -9  -1  -7   10.20    2.79
   9   1   7   15.25    4.42
   9   1   7   11.85    3.21
   9   1   7    7.01    2.44
  -9   1  -7   15.52    2.83
  -9   1  -7   12.17    3.03
  11  -1   7   46.51    7.37
  11  -1   7   52.81    5.08
 -11  -1  -7   48.60    5.04
  11  -1   7   34.24    4.68
 -11  -1  -7   37.31    4.76
  11   1   7   44.35    6.87
  11   1   7   34.76    4.78
 -11   1  -7   44.51    5.05
  13  -1   7   28.95    4.88
 -13  -1  -7   20.98    4.15
  13  -1   7   26.29    6.94
  13   1   7   27.93    6.59
  13   1   7   19.62    4.63
 -13   1  -7   30.69    4.83
  15  -1   7   23.40    5.08
  15  -1   7   10.58    7.68
 -15  -1  -7   19.38    4.79
  15   1   7   14.19    6.99
  15   1   7   11.54    4.62
 -15   1  -7   19.91    4.64
 -17  -1  -7   13.53    4.42
  17  -1   7   11.71    5.17
 -17   1  -7   11.85    4.92
  17   1   7   18.35    5.78
  22  -2  -7   -3.36    3.53
 -22  -2   7   -0.52    4.13
  22  -2  -7   -3.20    3.98
  22   2  -7    5.05    4.25
 -22   2   7   -0.64    4.00
  22   2  -7   -5.90    3.33
  20  -2  -7   14.70    4.56
 -20  -2   7    7.72    4.31
 -20   2   7    6.88    4.27
  20   2  -7    9.46    4.41
  20   2  -7    7.42    4.01
 -20   2   7    8.95    4.17
  18  -2  -7   49.99    6.21
  18  -2  -7   69.69    7.07
 -18  -2   7   69.25    6.97
  18  -2  -7   68.49    6.50
 -18   2   7   64.03    6.66
  18   2  -7   60.29    6.57
 -18   2   7   57.68    6.95
  18   2  -7   66.65    6.33
  16  -2  -7  187.57    9.74
 -16  -2   7  178.15    9.45
  16  -2  -7  166.17   10.04
 -16  -2   7  155.77    9.65
  16  -2  -7  168.57    9.49
 -16   2   7  172.77    9.59
 -16   2   7  156.89    9.86
  16   2  -7  166.45    9.55
  16   2  -7  158.86    8.82
  14  -2  -7   50.04    5.53
 -14  -2   7   57.76    5.20
  14  -2  -7   52.39    4.97
  14  -2  -7   44.20    4.80
 -14  -2   7   49.57    5.24
  14   2  -7   52.54    4.31
 -14   2   7   61.42    5.97
  14   2  -7   58.69    5.45
 -14   2   7   52.66    5.02
  12  -2  -7   12.59    2.54
 -12  -2   7   13.89    2.26
 -12  -2   7   10.87    2.60
  12  -2  -7   16.06    3.19
  12  -2  -7   13.08    2.81
 -12  -2   7   16.98    2.93
  12   2  -7   11.18    1.92
 -12   2   7   13.12    3.02
 -12   2   7   11.17    2.53
  12   2  -7   11.36    2.58
  12   2  -7   10.34    2.30
  10  -2  -7  931.12   35.01
  10  -2  -7  976.69   34.53
  10  -2  -7  901.53   34.36
 -10  -2   7  923.52   35.02
 -10  -2   7  944.06   35.03
  10  -2  -7  932.53   33.82
  10  -2  -7  947.53   35.44
 -10  -2   7  932.73   33.97
  10   2  -7  941.54   33.50
  10   2  -7  934.78   33.48
 -10   2   7  944.42   35.21
  10   2  -7  947.31   34.68
 -10   2   7  953.52   34.48
   8  -2  -7  168.61    7.72
  -8  -2   7  170.40    7.21
   8  -2  -7  170.64    7.10
  -8  -2   7  162.72    7.83
  -8  -2   7  161.13    7.93
   8   2  -7  163.59    7.26
  -8   2   7  167.51    7.85
   8   2  -7  154.36    6.36
  -8   2   7  164.33    7.92
  -8   2   7  172.07    7.19
   8   2  -7  153.23    6.37
  -6  -2   7  991.07   35.07
  -6  -2   7  969.39   35.48
   6  -2  -7  980.74   35.09
  -6  -2   7  953.54   35.70
   6  -2  -7  932.09   35.21
  -6   2   7 1017.30   34.60
  -6   2   7  973.39   35.51
   6   2  -7  987.25   34.74
   6   2  -7  952.23   35.50
   6   2  -7  958.65   34.66
  -6   2   7  963.35   35.61
   6   2  -7  957.57   34.57
   4  -2  -7    5.27    1.63
  -4  -2   7    7.76    1.61
   4  -2  -7    4.36    1.76
  -4  -2   7    7.49    1.97
  -4   2   7    6.44    1.63
   4   2  -7    3.52    1.58
  -4   2   7    5.70    1.81
   4   2  -7    8.55    1.85
   2  -2  -7  103.49    5.74
   2  -2  -7  101.60    5.27
  -2  -2   7   95.80    5.03
  -2  -2   7   91.25    5.15
  -2   2   7   96.62    5.12
   2   2  -7   88.72    5.54
  -2   2   7   98.30    4.99
   2   2  -7   97.86    5.11
   0  -2  -7 3136.31  111.12
   0  -2  -7 3090.67  110.37
   0  -2   7 3094.33  110.32
   0  -2   7 3098.55  110.26
   0   2  -7 3207.00  110.34
   0   2   7 3107.05  110.27
   0   2  -7 3146.82  111.15
   0   2   7 3139.58  109.98
   2  -2   7  437.71   17.82
   2  -2   7  461.66   16.82
  -2  -2  -7  481.42   19.09
  -2  -2  -7  463.84   16.94
  -2  -2  -7  454.71   18.03
   2   2   7  455.27   17.33
   2   2   7  474.36   18.97
  -2   2  -7  436.98   17.50
  -2   2  -7  464.52   17.90
  -2   2  -7  455.81   18.89
   2   2   7  462.53   17.91
   4  -2   7   53.23    3.58
   4  -2   7   56.87    4.65
  -4  -2  -7   62.26    4.58
  -4  -2  -7   57.36    5.72
   4  -2   7   60.44    5.76
  -4  -2  -7   52.42    3.59
  -4   2  -7   59.67    4.40
  -4   2  -7   57.58    3.83
   4   2   7   64.85    6.09
  -4   2  -7   63.36    6.01
   4   2   7   53.68    3.60
   4   2   7   66.18    4.43
  -6  -2  -7    4.34    1.87
   6  -2   7    6.66    2.36
  -6  -2  -7    2.41    3.58
   6  -2   7    9.60    3.47
  -6  -2  -7    2.40    2.13
   6  -2   7    2.28    1.71
   6   2   7    3.30    1.60
  -6   2  -7    4.40    2.25
   6   2   7    4.24    2.19
  -6   2  -7    3.87    1.79
  -6   2  -7    0.76    3.03
   6   2   7    1.29    2.95
  -8  -2  -7   18.02    3.34
   8  -2   7   17.43    4.82
  -8  -2  -7   21.66    3.26
   8  -2   7   22.01    3.61
   8  -2   7   18.04    2.96
  -8   2  -7   11.65    3.14
  -8   2  -7   19.15    2.88
   8   2   7   26.00    5.02
   8   2   7   22.86    3.64
 -10  -2  -7   85.66    6.80
  10  -2   7   78.67    6.67
  10  -2   7   88.87    9.08
 -10  -2  -7   77.74    6.40
  10  -2   7   87.31    6.21
 -10   2  -7   82.61    6.70
  10   2   7   72.82    6.87
  10   2   7  100.18    9.59
  12  -2   7    6.86    3.30
 -12  -2  -7    9.88    3.45
  12  -2   7    8.33    3.15
  12  -2   7   10.34    5.75
 -12  -2  -7    8.55    3.13
 -12   2  -7    4.31    3.09
  12   2   7    1.68    4.79
  12   2   7   15.52    4.15
 -14  -2  -7   28.08    4.83
  14  -2   7   20.72    4.70
  14  -2   7   27.28   12.06
  14  -2   7   20.81    4.70
  14   2   7   16.13    4.77
 -14   2  -7   22.62    4.85
  14   2   7   21.22    7.39
 -16  -2  -7    3.18    3.61
  16  -2   7    3.64    4.44
  16   2   7    9.96    9.67
 -16   2  -7    4.26    3.45
  16   2   7    4.92    4.50
  21  -3  -7   26.45    6.49
 -21  -3   7   29.95    6.03
  21   3  -7   36.15    6.00
 -21   3   7   19.63    5.07
 -21   3   7   22.45    5.33
  21   3  -7   20.34    5.35
  19  -3  -7    1.57    3.99
 -19  -3   7   -5.53    2.92
  19  -3  -7    1.05    3.50
  19  -3  -7    3.64    4.16
 -19   3   7   -2.53    3.02
  19   3  -7   -0.05    3.44
  19   3  -7   -0.23    3.15
 -19   3   7   -3.55    3.17
 -17  -3   7   25.18    4.76
  17  -3  -7   32.04    5.30
  17  -3  -7   31.47    5.02
 -17  -3   7   39.27    5.42
  17  -3  -7   28.07    5.18
 -17   3   7   35.23    4.92
  17   3  -7   24.35    4.28
  17   3  -7   31.79    4.83
 -17   3   7   29.18    5.04
  15  -3  -7    7.51    3.14
 -15  -3   7    1.97    2.77
 -15  -3   7    2.86    3.00
  15  -3  -7    7.00    3.20
  15  -3  -7    3.39    2.77
 -15   3   7    2.21    2.88
  15   3  -7   -1.74    2.32
  15   3  -7    2.27    2.53
 -15   3   7    4.55    2.78
 -13  -3   7    4.38    2.60
 -13  -3   7    2.74    2.51
  13  -3  -7    3.09    2.67
  13  -3  -7   -3.06    2.26
  13  -3  -7   -3.39    1.89
  13   3  -7    2.94    2.46
 -13   3   7    0.06    2.26
 -13   3   7   -1.80    1.83
  13   3  -7   -0.26    2.10
  11  -3  -7   47.96    4.65
 -11  -3   7   55.98    5.11
  11  -3  -7   35.90    4.54
  11  -3  -7   43.14    4.39
 -11  -3   7   48.68    4.84
 -11   3   7   41.73    4.50
  11   3  -7   42.49    4.09
  11   3  -7   41.33    3.76
 -11   3   7   50.41    4.31
  -9  -3   7  150.38    7.75
   9  -3  -7  137.79    8.02
  -9  -3   7  160.84    8.01
   9  -3  -7  148.58    7.80
  -9  -3   7  165.05    6.73
   9  -3  -7  155.85    6.66
   9  -3  -7  145.21    7.72
  -9   3   7  152.54    6.98
  -9   3   7  145.88    7.80
   9   3  -7  146.56    7.03
   9   3  -7  146.86    7.21
   9   3  -7  138.17    6.97
   7  -3  -7  659.41   23.84
   7  -3  -7  624.69   24.75
  -7  -3   7  657.62   23.78
   7  -3  -7  651.79   24.63
  -7  -3   7  639.80   24.78
   7  -3  -7  643.88   25.06
   7   3  -7  639.62   23.65
   7   3  -7  635.63   24.71
  -7   3   7  642.39   24.77
  -7   3   7  671.79   23.58
   7   3  -7  608.91   24.10
   7   3  -7  648.48   24.14
  -5  -3   7  428.87   16.86
  -5  -3   7  408.86   16.03
   5  -3  -7  410.76   16.15
   5  -3  -7  399.27   16.92
  -5   3   7  431.97   16.73
  -5   3   7  445.97   15.60
   5   3  -7  428.59   16.70
   5   3  -7  397.84   16.61
   5   3  -7  429.03   15.38
  -5   3   7  392.55   16.43
   3  -3  -7  426.70   16.33
   3  -3  -7  406.24   17.10
  -3  -3   7  421.99   16.13
  -3  -3   7  417.14   16.62
  -3   3   7  408.44   16.49
  -3   3   7  402.84   16.21
   3   3  -7  432.91   16.62
   3   3  -7  411.94   16.91
  -1  -3   7   41.47    3.52
   1  -3  -7   37.55    4.35
  -1  -3   7   33.41    3.35
   1  -3  -7   31.32    3.26
  -1   3   7   32.44    3.34
   1   3  -7   37.08    4.39
  -1   3   7   32.69    2.93
   1   3  -7   30.91    3.31
  -1  -3  -7   18.12    1.75
   1  -3   7   13.11    2.54
   1  -3   7   17.48    2.54
  -1  -3  -7   18.82    3.04
  -1  -3  -7   22.34    3.75
   1   3   7   23.25    4.22
   1   3   7   20.88    2.93
   1   3   7   17.06    2.20
  -1   3  -7   17.18    2.76
  -1   3  -7   20.15    4.03
  -3  -3  -7   36.20    2.85
  -3  -3  -7   27.93    3.43
   3  -3   7   38.71    5.05
   3  -3   7   32.77    2.48
   3  -3   7   28.59    2.98
  -3  -3  -7   29.66    4.46
   3  -3   7   32.33    3.58
  -3   3  -7   29.09    3.48
   3   3   7   39.01    5.03
  -3   3  -7   34.91    4.87
   3   3   7   28.55    3.38
   3   3   7   32.62    2.84
   5  -3   7  108.40    6.55
  -5  -3  -7  105.63    6.48
  -5  -3  -7  108.03    8.06
   5  -3   7  111.28    5.49
  -5  -3  -7  119.93    5.79
   5  -3   7  117.82    8.14
   5   3   7  101.47    6.40
   5   3   7  107.58    5.34
  -5   3  -7   99.02    6.42
  -5   3  -7  105.14    5.58
  -5   3  -7  114.69    8.09
   5   3   7  103.91    8.52
   7  -3   7   41.64    6.25
  -7  -3  -7   43.02    4.72
   7  -3   7   32.45    4.15
  -7  -3  -7   37.51    3.88
   7  -3   7   44.83    3.90
  -7   3  -7   41.61    5.77
   7   3   7   40.21    4.63
  -7   3  -7   38.94    4.57
   7   3   7   49.31    6.31
  -9  -3  -7   17.22    3.15
   9  -3   7   20.20    5.44
  -9  -3  -7   13.61    3.62
   9  -3   7   16.29    3.68
   9  -3   7   11.23    3.07
   9   3   7   14.73    5.49
  -9   3  -7   16.92    3.79
   9   3   7   21.85    4.17
  11  -3   7   41.76    4.98
  11  -3   7   34.32    4.87
 -11  -3  -7   34.30    4.56
  11  -3   7   43.33    7.44
 -11  -3  -7   41.58    5.32
  11   3   7   24.01    6.36
  11   3   7   44.30    5.64
 -11   3  -7   40.91    5.33
  13  -3   7    8.00    3.40
  13  -3   7    8.25    3.76
 -13  -3  -7    5.84    3.29
 -13  -3  -7   13.01    4.23
 -13   3  -7    7.49    3.40
  13   3   7    6.77    3.98
  13   3   7   10.43    6.75
  15  -3   7    9.78    4.38
  15  -3   7    9.23    4.24
 -15  -3  -7    0.93    3.42
  15   3   7   -1.16    8.36
  15   3   7    8.09    4.41
 -15   3  -7    8.27    4.72
 -17  -3  -7   13.89    4.75
 -17   3  -7   15.52    5.16
  17   3   7   14.80    5.47
 -20  -4   7    9.49    4.96
  20  -4  -7    0.75    5.01
  20  -4  -7   15.52    4.99
  20   4  -7    5.47    4.08
 -20   4   7    8.80    4.58
 -20   4   7    0.46    4.12
  20   4  -7    3.79    6.01
 -18  -4   7   26.68    5.57
  18  -4  -7   25.50    5.20
 -18  -4   7   22.08    4.97
  18  -4  -7   22.76    5.81
  18  -4  -7   22.80    5.30
  18   4  -7   32.96    5.21
 -18   4   7   17.73    4.55
  18   4  -7   20.53    4.77
 -18   4   7   32.64    5.15
 -16  -4   7   81.98    7.59
  16  -4  -7   84.74    8.26
 -16  -4   7   95.65    8.23
  16  -4  -7   93.27    7.87
  16  -4  -7   88.21    8.25
 -16   4   7  111.97    8.99
 -16   4   7   94.85    7.66
  16   4  -7   82.75    7.25
  16   4  -7   83.47    7.53
  14  -4  -7   10.86    3.49
 -14  -4   7   19.14    4.11
  14  -4  -7   19.01    4.14
  14  -4  -7   17.94    4.35
 -14  -4   7   19.00    4.05
  14   4  -7   19.14    4.20
 -14   4   7   15.49    3.47
  14   4  -7   15.89    3.77
 -14   4   7   18.50    4.07
 -12  -4   7   51.28    5.38
 -12  -4   7   44.81    5.00
  12  -4  -7   44.57    4.80
  12  -4  -7   38.27    4.97
  12  -4  -7   48.99    5.46
 -12   4   7   43.74    4.41
  12   4  -7   40.05    4.43
 -12   4   7   44.49    5.15
  12   4  -7   38.15    4.45
  10  -4  -7   54.44    5.12
  10  -4  -7   45.94    5.12
  10  -4  -7   61.45    5.94
 -10  -4   7   58.67    5.30
 -10  -4   7   57.95    5.39
  10   4  -7   54.43    5.00
  10   4  -7   64.10    4.44
 -10   4   7   64.27    4.44
 -10   4   7   58.64    5.44
   8  -4  -7   21.19    3.44
   8  -4  -7   17.63    3.12
  -8  -4   7   23.47    2.49
   8  -4  -7   23.03    3.71
  -8  -4   7   19.98    3.41
   8  -4  -7   18.82    2.51
  -8   4   7   14.36    2.94
   8   4  -7   18.05    3.14
  -8   4   7   27.34    2.72
   8   4  -7   23.51    2.58
   8   4  -7   24.55    3.40
   6  -4  -7   12.52    2.28
   6  -4  -7   13.95    3.20
   6  -4  -7   14.79    2.83
  -6  -4   7   13.46    2.05
   6  -4  -7   12.97    2.63
  -6  -4   7   14.01    2.87
   6   4  -7   14.98    1.89
  -6   4   7   11.46    2.56
  -6   4   7   17.27    2.01
   6   4  -7   13.26    2.77
   6   4  -7   15.71    2.96
  -4  -4   7   26.67    2.87
   4  -4  -7   26.04    3.32
   4  -4  -7   28.64    3.23
   4  -4  -7   27.01    3.07
   4  -4  -7   21.14    3.50
  -4  -4   7   21.51    3.22
   4   4  -7   23.82    3.68
  -4   4   7   29.05    2.18
  -4   4   7   23.68    3.29
   4   4  -7   26.32    3.32
   2  -4  -7   48.31    5.28
  -2  -4   7   37.62    3.86
   2  -4  -7   37.16    3.74
  -2  -4   7   38.08    3.57
  -2   4   7   38.49    3.74
   2   4  -7   35.63    4.53
   2   4  -7   43.38    4.15
  -2   4   7   48.73    3.85
   0  -4   7  293.31   12.52
   0  -4   7  285.91   12.55
   0  -4  -7  291.55   13.95
   0  -4  -7  300.56   12.83
   0   4   7  290.48   12.72
   0   4   7  306.05   12.10
   0   4  -7  289.23   12.87
   0   4   7  294.48   14.46
   0   4   7  296.88   11.22
   0   4  -7  316.20   14.25
  -2  -4  -7  149.57    8.87
   2  -4   7  143.59    7.06
  -2  -4  -7  143.91    6.30
  -2  -4  -7  143.78    7.66
   2  -4   7  136.60    7.55
   2   4   7  144.98    6.70
   2   4   7  140.10    7.62
  -2   4  -7  141.26    7.76
   2   4   7  141.44    8.90
  -2   4  -7  152.12    9.19
   4  -4   7   57.74    5.21
   4  -4   7   51.39    4.19
  -4  -4  -7   50.87    4.99
   4  -4   7   55.39    4.30
  -4  -4  -7   52.78    3.78
  -4  -4  -7   54.02    6.41
   4   4   7   53.46    3.71
  -4   4  -7   46.72    4.95
   4   4   7   66.77    6.87
  -4   4  -7   59.55    6.67
   4   4   7   44.73    4.63
  -6  -4  -7   29.58    4.03
   6  -4   7   27.04    3.98
  -6  -4  -7   20.77    3.13
   6  -4   7   28.00    3.63
  -6   4  -7   27.46    4.17
   6   4   7   25.45    3.98
   6   4   7   29.11    5.74
  -8  -4  -7   17.16    3.17
   8  -4   7   21.25    3.91
   8  -4   7   18.41    5.06
  -8  -4  -7   29.60    4.49
   8   4   7   27.89    5.76
  -8   4  -7   15.95    3.74
   8   4   7   20.49    3.86
  10  -4   7    4.69    3.00
 -10  -4  -7   -3.11    2.42
 -10  -4  -7   -3.77    2.95
  10   4   7   -5.01    4.47
  10   4   7    1.55    2.99
 -10   4  -7   -1.68    2.81
 -12  -4  -7   97.08    8.00
  12  -4   7   87.82    7.97
 -12  -4  -7   82.01    8.03
  12   4   7  113.00    9.39
  12   4   7  103.23   11.37
 -12   4  -7   85.06    7.99
 -14  -4  -7   14.39    4.73
  14  -4   7   19.69    4.71
 -14  -4  -7   17.18    4.45
 -14   4  -7   23.93    4.96
  14   4   7    2.75    4.80
 -16  -4  -7   -2.35    3.97
  16  -4   7    3.02    4.43
 -16   4  -7   -1.49    5.27
  16   4   7    1.86    4.95
 -19  -5   7    9.48    4.38
 -19  -5   7    9.74    5.13
  19  -5  -7    5.13    5.81
  19  -5  -7    5.11    4.30
 -19   5   7    6.67    4.35
 -19   5   7    8.58    4.43
  19   5  -7   12.74    4.82
  19   5  -7    4.55    4.32
  17  -5  -7   72.71    8.29
 -17  -5   7   86.83    8.33
  17  -5  -7   91.53    9.63
  17  -5  -7   85.66    8.13
 -17  -5   7   66.04    7.52
 -17   5   7   80.46    8.38
  17   5  -7   71.07    7.90
  17   5  -7   98.95    8.36
 -17   5   7  101.42    8.23
 -15  -5   7  169.59   10.23
  15  -5  -7  139.83   10.04
  15  -5  -7  153.62    9.87
  15  -5  -7  155.91   10.87
 -15  -5   7  142.78    9.73
  15   5  -7  159.64    9.53
  15   5  -7  151.49    9.89
 -15   5   7  140.58    9.56
 -15   5   7  140.17    8.84
  13  -5  -7   67.47    7.50
 -13  -5   7   59.74    6.40
  13  -5  -7   58.09    6.47
 -13  -5   7   54.93    6.00
  13  -5  -7   54.67    5.90
 -13   5   7   69.98    5.90
 -13   5   7   60.76    6.23
  13   5  -7   66.62    5.93
  13   5  -7   62.35    6.38
  11  -5  -7   36.62    4.69
 -11  -5   7   23.91    3.98
  11  -5  -7   24.62    4.49
  11  -5  -7   22.39    4.86
 -11  -5   7   33.25    4.76
 -11   5   7   25.51    4.14
  11   5  -7   25.77    3.74
  11   5  -7   25.34    4.35
 -11   5   7   26.92    3.60
   9  -5  -7  228.69   11.75
  -9  -5   7  213.68   11.18
   9  -5  -7  223.03   12.02
   9   5  -7  211.76   11.14
  -9   5   7  218.26   11.03
   9   5  -7  228.59   11.58
   9   5  -7  228.40   10.14
  -9   5   7  229.93    9.90
  -7  -5   7    3.41    2.63
   7  -5  -7    5.63    2.62
   7  -5  -7    4.08    2.32
  -7  -5   7    3.22    1.76
   7  -5  -7    4.39    2.02
   7  -5  -7    5.89    3.23
   7   5  -7    2.28    2.58
  -7   5   7    2.25    1.93
   7   5  -7    3.77    2.76
   7   5  -7    3.61    2.74
  -7   5   7    2.08    2.20
   5  -5  -7   50.29    5.67
   5  -5  -7   45.62    4.38
   5  -5  -7   51.91    4.87
  -5  -5   7   46.90    4.79
  -5  -5   7   53.65    4.12
   5  -5  -7   53.41    4.56
   5   5  -7   40.95    4.54
  -5   5   7   48.03    3.89
   5   5  -7   50.30    5.79
  -5   5   7   46.97    4.80
   3  -5  -7   18.48    3.02
   3  -5  -7   13.23    2.72
   3  -5  -7   17.29    4.05
   3  -5  -7   20.43    3.29
  -3  -5   7   20.91    3.12
  -3  -5   7   11.71    2.76
   3   5  -7   18.45    4.09
  -3   5   7   13.26    3.02
   3   5  -7   19.37    3.38
  -1  -5   7   79.95    5.37
  -1  -5   7   77.64    5.39
   1  -5  -7   69.54    5.18
   1  -5  -7   70.35    5.29
   1  -5  -7   74.78    7.24
   1  -5  -7   74.54    4.88
  -1   5   7   73.45    5.55
   1   5  -7   85.41    7.58
   1   5  -7   76.62    6.22
  -1  -5  -7   46.28    3.94
   1  -5   7   46.71    4.30
  -1  -5  -7   43.75    5.96
  -1  -5  -7   49.64    4.27
  -1  -5  -7   46.93    4.71
   1  -5   7   47.04    4.51
  -1   5  -7   43.15    4.72
   1   5   7   43.13    4.64
  -1   5  -7   42.46    5.70
   3  -5   7   33.81    4.24
   3  -5   7   39.10    3.82
  -3  -5  -7   41.45    4.74
   3   5   7   48.95    8.00
  -3   5  -7   37.50    4.69
  -3   5  -7   35.66    5.86
   3   5   7   33.96    3.44
   3   5   7   35.44    4.25
  -5  -5  -7   -2.04    2.50
   5  -5   7    4.13    2.93
  -5  -5  -7   -0.54    2.70
  -5   5  -7    2.69    2.92
   5   5   7   -0.81    4.41
   5   5   7    4.21    2.63
   7  -5   7   26.86    4.51
  -7  -5  -7   30.86    4.13
  -7  -5  -7   28.09    4.56
  -7   5  -7   24.05    4.45
   7   5   7   25.78    4.21
   7   5   7   44.22    7.60
   9  -5   7   13.29    3.76
  -9  -5  -7    7.26    3.82
  -9  -5  -7    6.34    3.34
   9   5   7    4.67    3.41
  -9   5  -7   12.10    3.82
   9   5   7   12.22    6.60
 -11  -5  -7    3.91    3.95
 -11  -5  -7   -2.66    3.31
  11  -5   7   -4.09    3.00
 -11   5  -7    0.47    3.30
  11   5   7   -0.55    3.60
 -13  -5  -7    0.77    3.97
  13  -5   7   10.96    4.36
 -13   5  -7    4.02    3.69
  13   5   7    4.02    4.34
  15  -5   7   32.68    6.10
 -15  -5  -7   31.86    6.74
 -15   5  -7   29.80    6.17
  15   5   7   23.96    6.33
 -18  -6   7   -0.55    3.14
 -18  -6   7    1.67    4.56
  18  -6  -7   -0.32    5.85
  18  -6  -7   -3.26    3.84
 -18   6   7   -6.37    3.52
  18   6  -7   -9.74    4.77
  18   6  -7   -0.06    5.18
  16  -6  -7    6.71    5.32
 -16  -6   7   13.28    4.16
  16  -6  -7    9.10    3.89
 -16  -6   7    2.59    4.22
  16  -6  -7    5.51    4.23
 -16   6   7   16.55    4.40
  16   6  -7    6.89    5.21
  16   6  -7   13.10    4.92
 -14  -6   7    8.95    3.62
 -14  -6   7   -1.76    3.70
  14  -6  -7    0.35    3.35
  14  -6  -7    8.40    5.00
  14  -6  -7    6.61    3.68
  14   6  -7    1.30    4.85
 -14   6   7    3.82    3.43
  14   6  -7    0.16    4.14
  12  -6  -7   86.04    8.72
 -12  -6   7   86.35    7.95
  12  -6  -7   65.37    6.64
  12  -6  -7   64.50    7.10
  12   6  -7   78.08    7.96
  12   6  -7   84.48    7.58
 -12   6   7   73.16    7.06
  10  -6  -7  165.88   10.46
 -10  -6   7  151.41   10.11
  10  -6  -7  171.62   10.01
  10  -6  -7  191.16   11.63
 -10   6   7  182.46    9.92
  10   6  -7  176.37   10.18
  10   6  -7  163.46   10.98
  -8  -6   7  122.17    8.01
   8  -6  -7  122.60    8.33
   8  -6  -7  130.66    9.52
   8  -6  -7  118.22    7.60
   8   6  -7  122.67    9.05
   8   6  -7  117.96    8.09
  -8   6   7  115.30    7.61
  -6  -6   7   28.01    3.32
   6  -6  -7   23.38    3.83
   6  -6  -7   22.12    3.41
  -6  -6   7   23.80    4.18
   6  -6  -7   29.57    5.21
   6  -6  -7   29.67    4.54
   6   6  -7   17.08    4.49
  -6   6   7   22.91    3.85
   6   6  -7   20.75    3.86
   4  -6  -7   17.28    3.20
  -4  -6   7   14.73    2.79
   4  -6  -7   17.41    4.71
   4  -6  -7   12.31    3.32
  -4  -6   7    9.45    3.05
   4  -6  -7   14.36    3.03
  -4   6   7    9.49    2.95
   4   6  -7    7.84    3.85
   4   6  -7   18.21    3.61
  -2  -6   7    7.45    2.74
  -2  -6   7   13.51    2.92
   2  -6  -7   10.02    4.37
   2  -6  -7    9.44    2.85
   2  -6  -7    7.56    2.83
   2  -6  -7    9.15    3.02
  -2   6   7   12.78    3.07
   2   6  -7    7.40    3.29
   2   6  -7   10.20    4.34
   0  -6   7  336.18   14.55
   0  -6  -7  328.45   14.85
   0  -6  -7  330.82   13.93
   0  -6  -7  342.45   16.86
   0  -6  -7  332.43   14.32
   0  -6   7  330.55   14.50
   0   6   7  327.47   14.90
   0   6  -7  309.81   14.96
   0   6  -7  335.66   16.94
  -2  -6  -7  266.40   12.93
   2  -6   7  250.44   12.54
   2  -6   7  262.00   12.03
  -2  -6  -7  283.42   13.97
  -2  -6  -7  284.51   12.90
  -2   6  -7  263.11   13.05
  -2   6  -7  282.63   14.77
   2   6   7  246.32   12.68
  -4  -6  -7   56.43    5.99
   4  -6   7   58.32    6.09
   4   6   7   52.18    5.81
  -4   6  -7   54.89    6.06
   6  -6   7    1.69    3.12
  -6  -6  -7    8.51    3.79
  -6   6  -7    5.93    3.24
   6   6   7    5.78    3.10
   8  -6   7   -0.23    2.99
  -8  -6  -7    5.91    3.90
  -8   6  -7    3.25    3.62
   8   6   7    3.38    3.27
  10  -6   7   -2.10    3.11
 -10  -6  -7    2.49    3.88
 -10   6  -7    4.05    3.71
  10   6   7    3.45    3.43
 -12  -6  -7   44.73    6.89
  12  -6   7   48.26    6.73
  12   6   7   51.79    7.08
 -12   6  -7   55.34    7.29
  14  -6   7    6.35    4.21
 -14  -6  -7    9.81    5.40
  14   6   7    2.07    4.10
 -14   6  -7    1.79    5.00
  17  -7  -7   15.30    5.03
 -17  -7   7   23.93    5.79
 -17  -7   7   19.83    5.09
  17  -7  -7   27.40    8.15
  17   7  -7   15.68    5.91
 -17   7   7   27.84    5.66
  17   7  -7   21.07    6.95
  15  -7  -7   68.74    9.38
  15  -7  -7   72.31    8.58
 -15  -7   7   63.37    7.91
  15  -7  -7   60.65    7.26
 -15   7   7   63.56    7.23
  15   7  -7   61.87    8.65
  15   7  -7   54.62    7.42
  13  -7  -7    9.59    4.10
  13  -7  -7    6.37    5.43
  13  -7  -7   12.23    4.68
 -13  -7   7   16.69    4.88
 -13   7   7   17.78    4.23
  13   7  -7   15.88    5.68
  13   7  -7   27.73    5.28
  11  -7  -7   47.42    6.60
 -11  -7   7   50.68    6.68
  11  -7  -7   52.70    8.00
  11  -7  -7   51.95    6.17
  11   7  -7   56.88    6.66
 -11   7   7   49.97    5.93
  11   7  -7   56.87    7.67
   9  -7  -7   14.30    5.47
  -9  -7   7    2.56    3.25
   9  -7  -7   -0.63    2.93
   9  -7  -7   -2.91    3.27
  -9   7   7   -2.24    2.61
   9   7  -7   -2.75    3.18
   9   7  -7    1.83    4.32
   7  -7  -7    7.93    4.09
   7  -7  -7    6.39    5.10
  -7  -7   7   20.21    4.05
   7  -7  -7   13.02    3.80
   7   7  -7   12.53    5.03
   7   7  -7   11.37    3.88
  -7   7   7   13.12    3.50
   5  -7  -7   19.73    4.32
   5  -7  -7   17.19    5.74
  -5  -7   7   25.79    3.97
   5  -7  -7   27.25    4.21
   5  -7  -7   22.92    3.99
  -5  -7   7   21.94    4.10
   5   7  -7   17.05    5.43
  -5   7   7   19.12    3.87
   5   7  -7   25.03    4.73
  -3  -7   7   17.95    3.54
  -3  -7   7   16.22    3.66
   3  -7  -7   26.90    6.00
   3  -7  -7   19.73    3.90
   3  -7  -7   24.59    4.50
   3  -7  -7   21.09    3.82
   3   7  -7   18.84    4.25
  -3   7   7   21.25    3.91
   3   7  -7   23.24    5.93
   1  -7  -7   -2.74    4.35
   1  -7  -7    3.71    2.70
   1  -7  -7    9.12    3.30
   1  -7  -7    2.06    2.77
  -1  -7   7    3.19    2.62
  -1  -7   7    2.14    2.63
  -1   7   7    3.39    2.91
   1   7  -7   -1.93    3.13
   1   7  -7    6.22    4.73
   1  -7   7   98.13    6.88
   1  -7   7  101.79    7.19
  -1  -7  -7  100.18    8.09
   1   7   7  105.49    7.50
  -1   7  -7  129.18   11.26
  -1   7  -7   91.04    7.81
  -3  -7  -7    3.15    2.97
   3  -7   7   10.10    3.69
  -3   7  -7    4.17    3.52
   3   7   7    2.31    2.94
   5  -7   7   12.32    4.04
  -5  -7  -7   11.73    3.77
  -5   7  -7   17.40    4.43
   5   7   7   13.09    3.82
   7  -7   7    4.54    3.83
  -7  -7  -7   -0.81    3.45
  -7   7  -7   -8.70    2.85
   7   7   7    0.44    3.17
   9  -7   7   13.09    4.37
  -9  -7  -7   11.24    4.67
  -9   7  -7   16.20    4.79
   9   7   7    5.26    3.75
  11  -7   7   -4.27    3.54
 -11  -7  -7   -2.85    4.35
 -11   7  -7   -0.72    4.28
  11   7   7    7.66    4.03
 -13  -7  -7    2.60    5.06
  13  -7   7    5.69    4.53
  13   7   7   -8.60    3.36
 -13   7  -7    1.31    4.83
  16  -8  -7    3.63    7.31
  16  -8  -7    4.46    3.92
 -16  -8   7    1.07    4.86
  16   8  -7    2.16    6.74
  16   8  -7    6.28    5.27
 -16   8   7    5.10    4.22
  14  -8  -7   -1.81    4.54
 -14  -8   7   -0.35    4.42
  14  -8  -7   -0.65    3.85
  14  -8  -7    7.47    6.83
  14   8  -7   -3.98    6.09
 -14   8   7   -0.51    3.39
  14   8  -7    0.74    4.73
 -12  -8   7   -0.13    4.57
  12  -8  -7    1.11    5.84
  12  -8  -7   -3.08    4.14
  12  -8  -7   -0.19    3.71
  12   8  -7   -2.34    4.04
  12   8  -7    3.63    5.58
 -12   8   7   -2.13    3.32
  10  -8  -7   -1.99    3.47
  10  -8  -7    1.54    4.29
 -10  -8   7    0.33    3.62
  10  -8  -7    2.02    5.54
  10   8  -7   -4.21    3.67
 -10   8   7   -1.59    3.08
  10   8  -7    3.16    5.70
   8  -8  -7   43.55    6.46
   8  -8  -7   45.65    6.08
   8  -8  -7   48.65    8.65
  -8  -8   7   42.20    6.00
   8   8  -7   46.81    7.90
   8   8  -7   40.91    6.15
  -8   8   7   38.67    5.44
   6  -8  -7   39.51    7.67
   6  -8  -7   45.64    6.40
  -6  -8   7   29.63    5.07
   6  -8  -7   24.43    4.80
   6   8  -7   33.54    5.54
  -6   8   7   44.94    5.76
   6   8  -7   32.91    7.49
   4  -8  -7    4.70    5.56
   4  -8  -7    2.72    3.92
   4  -8  -7    1.31    3.11
  -4  -8   7   -1.12    2.86
   4  -8  -7   -0.83    2.82
   4   8  -7   -4.27    4.93
   4   8  -7   -5.95    3.31
  -4   8   7   -0.12    2.69
   2  -8  -7    2.31    3.32
   2  -8  -7    0.71    2.88
   2  -8  -7   -1.62    2.85
  -2  -8   7    2.52    3.03
  -2  -8   7    0.46    2.78
   2   8  -7   -2.53    3.48
   2   8  -7    6.53    5.63
  -2   8   7    8.43    3.22
   0  -8   7    4.14    3.10
   0  -8  -7    3.83    3.30
   0  -8   7   -0.53    3.04
   0   8   7    1.88    3.04
   0   8  -7    4.61    5.65
   0   8  -7    0.17    3.67
   2  -8   7    8.18    3.85
  -2  -8  -7    3.93    3.34
   2   8   7    6.23    3.49
  -2   8  -7   10.68    4.33
  -4  -8  -7   -2.00    3.00
   4  -8   7    1.67    3.75
  -4   8  -7    2.93    3.97
   4   8   7   -1.00    3.12
  -6  -8  -7    0.74    3.36
   6  -8   7    4.09    3.96
  -6   8  -7   11.18    4.53
   6   8   7    5.30    3.59
   8  -8   7    2.94    4.25
  -8  -8  -7    0.25    3.92
   8   8   7   -4.00    3.23
  -8   8  -7    4.70    4.51
  10  -8   7    0.73    4.64
 -10  -8  -7    5.71    5.37
  10   8   7    7.15    4.52
 -10   8  -7    0.15    4.38
 -13  -9   7    1.82    4.72
  13  -9  -7   -1.14    4.32
  13  -9  -7   -9.71    6.75
  13   9  -7   -0.41    5.45
 -13   9   7    4.21    4.31
  13   9  -7   -1.02    6.72
  11  -9  -7   -1.62    4.89
  11  -9  -7   -0.82    7.30
  11  -9  -7    0.50    4.32
 -11  -9   7    1.00    3.69
  11   9  -7   -0.84    6.92
  11   9  -7   -0.07    4.89
 -11   9   7    0.16    3.36
   9  -9  -7    9.19    4.97
   9  -9  -7    6.66    4.17
   9  -9  -7   13.16    7.79
  -9  -9   7   12.21    4.80
  -9   9   7    6.03    3.97
   9   9  -7   10.42    5.45
   9   9  -7   11.47    6.63
  -7  -9   7   13.35    4.61
   7  -9  -7   22.21    4.95
   7  -9  -7   11.13    4.81
   7   9  -7   13.90    5.22
  -7   9   7   13.83    4.16
   7   9  -7    8.63    6.32
   5  -9  -7    7.71    4.35
  -5  -9   7   11.62    4.25
   5  -9  -7   13.52    5.22
   5   9  -7   13.12    7.19
  -5   9   7   11.81    4.19
   5   9  -7    7.81    4.67
   3  -9  -7   -1.83    3.71
   3  -9  -7   -3.86    4.30
  -3  -9   7   -0.28    3.22
   3  -9  -7   -3.60    3.33
   3   9  -7    1.30    4.30
   3   9  -7   -5.50    6.39
  -3   9   7    1.60    3.25
  -1  -9   7   11.38    4.38
   1  -9  -7    7.34    3.61
  -1  -9   7   11.28    3.91
  -1   9   7    9.01    3.93
   1   9  -7   13.91    4.65
   1  -9   7    1.91    3.54
  -1  -9  -7   -1.55    3.28
   1   9   7   -2.29    3.30
  -1   9  -7   -0.28    4.23
   3  -9   7   73.74    7.85
  -3  -9  -7   82.40    8.33
   3   9   7   73.71    7.91
  -3   9  -7   75.28    8.12
   5  -9   7    5.45    4.48
  -5  -9  -7    1.79    4.21
   5   9   7   -0.39    3.70
  -5   9  -7    4.54    4.53
   7  -9   7   12.14    4.82
  -7  -9  -7    2.86    4.23
   7   9   7    6.41    4.32
  -7   9  -7    6.15    5.00
   9  -9   7    2.84    5.00
  -9  -9  -7   -0.64    5.17
  -9   9  -7   -0.34    5.18
   9   9   7    2.46    4.28
  10 -10  -7   14.98    5.56
 -10 -10   7   22.26    5.98
  10  10  -7   24.99    7.12
 -10  10   7   16.97    5.32
  10  10  -7    9.20    7.95
  -8 -10   7   11.84    4.97
   8 -10  -7    9.67    4.93
  -8  10   7   11.63    4.81
   8  10  -7    3.56    8.21
   8  10  -7   -2.09    5.72
   6 -10  -7   -3.52    4.03
  -6 -10   7    7.12    4.34
   6  10  -7   -2.08    7.40
   6  10  -7    3.43    5.30
  -6  10   7    6.98    4.33
  -4 -10   7   14.47    4.73
  -4  10   7   18.42    4.94
   4  10  -7   19.51    6.02
   2 -10  -7   39.89    6.64
  -2 -10   7   41.77    6.41
  -2  10   7   34.42    6.12
   2  10  -7   39.96    7.14
   0 -10   7  129.82   10.14
   0 -10  -7  116.98   10.39
   0  10   7  105.73    9.74
   0  10  -7  110.47   10.29
  -2 -10  -7   50.05    7.05
   2 -10   7   48.40    7.00
   2  10   7   47.59    6.80
  -2  10  -7   40.68    7.53
  -4 -10  -7    3.40    4.34
   4 -10   7    6.73    4.57
   4  10   7   -0.27    3.87
  -4  10  -7   -3.36    4.82
  22   0  -8    2.26    3.92
  22   0  -8    1.22    3.87
 -22   0   8    3.13    3.93
  20   0  -8   83.10    7.49
  20   0  -8   99.72    9.09
 -20   0   8   86.51    8.32
 -18   0   8   88.52    7.67
  18   0  -8  100.86    8.34
  18   0  -8   96.09    6.85
 -16   0   8    3.47    3.06
  16   0  -8    8.09    2.48
 -16   0   8    4.96    2.85
  16   0  -8    4.18    3.47
  16   0  -8    5.86    3.23
 -14   0   8 1201.12   44.54
 -14   0   8 1226.21   45.77
 -14   0   8 1220.76   45.38
  14   0  -8 1198.28   43.85
  14   0  -8 1224.22   45.29
  14   0  -8 1255.19   44.81
 -12   0   8   12.04    2.45
  12   0  -8    7.90    2.25
 -12   0   8   13.41    2.98
 -12   0   8   12.50    2.45
 -12   0   8   13.60    2.40
  12   0  -8    8.86    2.20
 -10   0   8 1241.68   45.76
 -10   0   8 1257.37   45.66
 -10   0   8 1255.40   45.57
 -10   0   8 1287.31   46.10
  -8   0   8   39.43    3.51
  -8   0   8   41.92    3.47
  -8   0   8   44.35    3.46
  -8   0   8   47.09    3.74
  -6   0   8  423.17   16.16
  -6   0   8  423.24   15.91
  -6   0   8  415.50   16.33
  -6   0   8  427.51   16.35
  -4   0   8 2223.83   79.19
   4   0  -8 2254.79   78.43
   4   0  -8 2140.19   78.60
  -4   0   8 2206.47   79.02
   4   0  -8 2295.19   78.93
  -4   0   8 2271.42   78.67
   2   0  -8  123.48    6.50
   2   0  -8  126.13    6.41
   2   0  -8  141.88    5.82
  -2   0   8  141.64    5.91
  -2   0   8  137.40    6.33
   0   0  -8  595.41   22.69
   0   0  -8  586.99   23.22
   0   0  -8  619.64   22.04
   0   0   8  598.53   22.54
   0   0   8  602.84   22.10
  -2   0  -8  113.24    6.02
  -2   0  -8  123.39    7.30
   2   0   8  120.60    5.96
   2   0   8  121.87    5.70
  -2   0  -8  115.53    5.62
   4   0   8    2.51    2.59
  -4   0  -8    2.21    1.69
   4   0   8    5.63    1.72
  -4   0  -8    4.86    3.17
   4   0   8    2.60    1.74
  -4   0  -8    0.86    1.83
  -6   0  -8  538.38   22.07
   6   0   8  513.93   21.88
  -6   0  -8  510.59   20.14
   6   0   8  517.35   20.13
  -6   0  -8  521.93   20.25
   6   0   8  501.12   20.26
   8   0   8   96.30    5.96
  -8   0  -8   96.50    6.16
  -8   0  -8   94.85    6.02
   8   0   8   98.88    6.27
   8   0   8   89.26    8.45
  10   0   8   22.92    3.80
 -10   0  -8   15.57    3.48
  10   0   8   17.43    3.33
 -10   0  -8   18.66    3.60
  10   0   8   21.37    5.80
  12   0   8   38.66    7.37
  12   0   8   31.02    5.01
 -12   0  -8   30.88    4.59
  14   0   8    3.30    3.71
 -14   0  -8    3.24    3.58
 -16   0  -8   42.37    6.21
  16   0   8   53.89    7.19
 -21  -1   8   -1.43    3.60
  21  -1  -8   -5.04    2.99
  21  -1  -8   -5.58    3.03
  21   1  -8   -0.38    3.39
  21   1  -8    2.52    3.56
 -21   1   8   -4.75    3.30
 -19  -1   8   -0.43    3.23
  19  -1  -8    1.10    2.97
 -19   1   8   -1.26    3.51
  19   1  -8    0.93    2.97
 -19   1   8    0.12    3.04
  19   1  -8   -0.43    3.48
  17  -1  -8   11.03    3.85
  17  -1  -8   11.02    3.29
 -17  -1   8   10.87    3.56
  17  -1  -8    6.58    2.87
  17   1  -8   12.77    3.77
 -17   1   8   13.49    3.50
  17   1  -8   12.45    2.92
 -17   1   8    0.92    3.12
  15  -1  -8  322.85   13.97
  15  -1  -8  331.73   14.62
 -15  -1   8  307.89   14.35
  15  -1  -8  296.25   13.19
 -15  -1   8  322.20   13.83
 -15   1   8  313.72   14.12
  15   1  -8  303.81   14.30
 -15   1   8  306.23   14.60
  15   1  -8  313.40   12.79
 -13  -1   8    1.36    2.05
  13  -1  -8    2.80    1.65
  13  -1  -8    0.20    1.86
 -13  -1   8    1.67    2.18
  13  -1  -8    2.89    2.15
 -13  -1   8   -0.81    1.78
 -13   1   8   -2.57    2.00
  13   1  -8    2.84    1.31
  13   1  -8   -1.12    1.07
  13   1  -8    2.98    1.99
 -13   1   8    1.80    1.97
  13   1  -8    2.71    1.99
  11  -1  -8  131.15    7.10
  11  -1  -8  125.68    6.79
  11  -1  -8  119.07    5.38
 -11  -1   8  122.65    6.69
  11  -1  -8  118.47    5.42
 -11  -1   8  139.13    7.07
 -11  -1   8  126.46    6.84
 -11  -1   8  125.45    6.39
 -11   1   8  134.23    6.62
 -11   1   8  131.33    7.13
 -11   1   8  133.69    6.24
   9  -1  -8   46.53    2.22
  -9  -1   8   41.69    3.84
  -9  -1   8   45.08    3.77
  -9  -1   8   49.62    3.41
   9  -1  -8   42.87    2.24
  -9  -1   8   48.87    4.01
  -9   1   8   44.93    3.81
  -9   1   8   42.12    3.44
  -9   1   8   52.30    3.52
  -9   1   8   48.22    4.09
   7  -1  -8 1158.57   40.71
  -7  -1   8 1174.37   41.43
   7  -1  -8 1148.16   41.55
   7  -1  -8 1120.74   40.66
  -7  -1   8 1148.76   41.64
  -7  -1   8 1157.98   41.54
  -7  -1   8 1142.88   41.95
  -7   1   8 1124.87   41.77
  -7   1   8 1187.22   41.15
  -7   1   8 1147.93   41.84
  -5  -1   8  785.28   29.02
   5  -1  -8  771.17   28.69
   5  -1  -8  823.45   28.81
  -5  -1   8  810.91   28.50
   5  -1  -8  803.19   29.09
  -5  -1   8  787.42   29.32
  -5   1   8  803.86   28.24
   5   1  -8  795.53   28.91
  -5   1   8  782.86   29.15
   5   1  -8  792.04   28.31
   5   1  -8  757.28   28.35
  -5   1   8  782.04   29.05
   3  -1  -8  226.59    9.99
  -3  -1   8  247.60    9.10
  -3  -1   8  240.37   10.06
  -3  -1   8  239.43    9.80
   3  -1  -8  232.77    9.93
   3   1  -8  246.32    9.67
  -3   1   8  223.25    9.79
  -3   1   8  240.33    9.74
   3   1  -8  226.78    9.85
  -1  -1   8  113.32    5.73
   1  -1  -8  103.85    5.75
   1  -1  -8  115.60    6.33
  -1  -1   8  110.17    5.82
  -1  -1   8  118.44    4.88
   1   1  -8  111.62    5.50
   1   1  -8  110.14    6.26
  -1   1   8  112.83    5.60
  -1   1   8  113.73    5.48
  -1  -1  -8  472.21   18.75
   1  -1   8  468.00   18.68
   1  -1   8  476.61   17.86
  -1  -1  -8  507.75   19.81
  -1  -1  -8  510.08   17.88
  -1   1  -8  486.10   18.45
  -1   1  -8  496.83   19.73
   1   1   8  469.47   18.44
   1   1   8  486.18   18.55
  -1   1  -8  484.28   18.64
   3  -1   8  451.14   17.72
   3  -1   8  446.81   18.85
  -3  -1  -8  466.03   19.01
  -3  -1  -8  451.46   17.76
   3  -1   8  448.79   17.04
  -3  -1  -8  450.35   17.02
  -3   1  -8  444.39   17.44
  -3   1  -8  450.18   18.89
  -3   1  -8  433.44   17.44
   3   1   8  437.32   17.54
   3   1   8  473.80   19.07
   3   1   8  449.83   17.33
   5  -1   8   22.43    3.03
  -5  -1  -8   26.65    4.65
  -5  -1  -8   22.04    2.78
   5  -1   8   21.41    4.16
  -5  -1  -8   22.56    3.18
   5  -1   8   26.42    2.99
   5   1   8   24.51    3.21
   5   1   8   23.25    2.76
  -5   1  -8   27.37    3.36
   5   1   8   35.52    4.96
  -5   1  -8   24.72    3.00
  -5   1  -8   26.09    4.29
   7  -1   8   51.32    4.53
  -7  -1  -8   53.26    4.60
   7  -1   8   40.55    5.74
  -7  -1  -8   46.33    4.55
   7  -1   8   43.60    4.31
   7   1   8   48.27    4.69
  -7   1  -8   49.32    4.34
   7   1   8   49.07    4.11
   7   1   8   55.82    6.42
  -7   1  -8   54.70    5.19
  -9  -1  -8  114.17    7.23
   9  -1   8  130.55    9.70
   9  -1   8  112.93    7.18
  -9  -1  -8   99.90    6.98
   9  -1   8  111.91    6.98
  -9   1  -8   99.17    7.72
   9   1   8  106.94    7.20
  -9   1  -8  101.48    6.48
   9   1   8  114.39    6.44
   9   1   8  116.53    9.82
  11  -1   8   46.58    7.50
  11  -1   8   41.29    5.07
 -11  -1  -8   28.09    4.51
  11  -1   8   38.64    4.71
 -11  -1  -8   50.04    5.37
 -11   1  -8   34.29    4.80
  11   1   8   43.07    5.44
  11   1   8   43.49    7.22
 -13  -1  -8   -2.43    2.52
  13  -1   8    3.13    3.47
 -13   1  -8    1.54    2.90
  13   1   8   -2.88    3.31
  13   1   8    2.26    6.42
  15  -1   8    3.58    4.24
 -15  -1  -8    2.95    3.42
 -15   1  -8    0.12    3.76
  15   1   8    5.37    4.14
 -17  -1  -8   16.13    4.97
  17  -1   8    0.22    4.65
 -17   1  -8    9.41    4.64
  17   1   8    9.66    5.43
 -22  -2   8    1.42    4.04
  22  -2  -8    3.73    4.29
  22  -2  -8    7.71    4.29
  22   2  -8   -1.74    3.55
  22   2  -8    2.06    4.06
 -22   2   8   -0.13    4.23
 -20  -2   8   23.46    5.10
  20  -2  -8   25.53    5.04
  20   2  -8   27.43    4.82
  20   2  -8   27.47    5.44
 -20   2   8   15.21    5.06
 -20   2   8   30.72    5.29
  18  -2  -8    4.67    3.72
  18  -2  -8    5.96    3.50
  18  -2  -8    5.28    3.40
 -18  -2   8    5.08    3.59
 -18   2   8    3.13    3.47
 -18   2   8   -0.25    3.05
  18   2  -8    2.78    3.44
  18   2  -8    6.00    3.16
  16  -2  -8   14.51    3.72
  16  -2  -8   10.47    3.23
  16  -2  -8   20.71    4.12
 -16  -2   8   24.69    4.25
 -16  -2   8   18.87    3.87
 -16   2   8   19.40    3.69
  16   2  -8   19.23    3.26
  16   2  -8   15.23    3.75
 -16   2   8   10.26    3.69
  14  -2  -8  394.16   17.10
  14  -2  -8  364.56   15.85
 -14  -2   8  389.44   16.71
 -14  -2   8  396.44   16.45
  14  -2  -8  382.82   16.43
  14   2  -8  397.97   16.59
 -14   2   8  362.05   16.05
 -14   2   8  377.34   16.90
  14   2  -8  374.87   15.08
  12  -2  -8  131.96    7.32
 -12  -2   8  130.13    7.40
  12  -2  -8  123.08    6.78
  12  -2  -8  136.42    7.80
 -12  -2   8  139.66    6.62
 -12  -2   8  136.43    7.55
 -12   2   8  137.50    7.01
  12   2  -8  128.38    5.93
  12   2  -8  132.76    7.20
 -12   2   8  142.61    7.84
  12   2  -8  126.16    5.87
  10  -2  -8  357.06   15.18
  10  -2  -8  361.12   15.67
 -10  -2   8  365.86   15.33
  10  -2  -8  382.48   14.81
 -10  -2   8  369.76   15.44
  10  -2  -8  353.72   14.54
  10  -2  -8  378.68   14.29
 -10  -2   8  373.98   14.39
 -10   2   8  369.88   15.48
  10   2  -8  386.60   14.90
  10   2  -8  351.13   13.37
  10   2  -8  357.24   13.36
 -10   2   8  388.93   14.68
  -8  -2   8  215.78   10.11
  -8  -2   8  233.28    9.45
   8  -2  -8  222.16    9.37
  -8  -2   8  227.32    9.94
   8  -2  -8  219.73    9.46
   8  -2  -8  236.13    9.68
  -8  -2   8  226.11    9.42
  -8   2   8  228.63    9.99
  -8   2   8  225.07   10.11
   8   2  -8  206.58    8.43
   8   2  -8  224.25    8.45
  -8   2   8  237.53    9.21
  -6  -2   8   10.25    1.59
  -6  -2   8    7.61    2.13
   6  -2  -8    9.77    1.84
   6  -2  -8    7.82    1.90
  -6  -2   8    8.47    1.77
   6   2  -8    8.08    1.61
  -6   2   8    8.12    2.05
  -6   2   8   12.69    2.25
   6   2  -8    5.94    1.51
   6   2  -8    7.47    2.07
  -6   2   8    9.86    1.51
   4  -2  -8  185.20    8.62
  -4  -2   8  178.95    8.61
  -4  -2   8  186.84    8.24
   4  -2  -8  198.20    8.40
   4   2  -8  194.30    8.50
   4   2  -8  194.37    8.41
  -4   2   8  186.93    8.39
  -4   2   8  193.50    8.53
   2  -2  -8  185.28    8.99
  -2  -2   8  192.13    8.54
  -2  -2   8  184.71    8.32
   2  -2  -8  186.21    8.46
  -2   2   8  184.95    8.23
  -2   2   8  194.07    8.44
   2   2  -8  189.08    8.35
   2   2  -8  185.53    8.89
   0  -2   8   64.57    4.32
   0  -2  -8   55.99    4.27
   0  -2  -8   63.35    5.48
   0  -2   8   71.28    4.43
   0   2  -8   71.66    5.72
   0   2   8   64.39    4.06
   0   2  -8   64.52    4.33
   0   2   8   66.06    4.24
  -2  -2  -8  312.00   13.51
  -2  -2  -8  339.32   14.82
   2  -2   8  324.52   12.30
   2  -2   8  323.01   13.53
  -2  -2  -8  337.65   12.42
  -2   2  -8  318.96   13.18
   2   2   8  321.51   13.42
   2   2   8  336.55   14.75
   2   2   8  317.49   12.91
  -2   2  -8  322.78   14.53
  -2   2  -8  326.00   13.40
   4  -2   8   28.77    4.62
   4  -2   8   29.90    2.81
  -4  -2  -8   26.06    2.70
  -4  -2  -8   35.11    4.65
  -4  -2  -8   32.86    3.71
   4  -2   8   26.31    3.24
   4   2   8   21.07    2.98
  -4   2  -8   31.22    4.76
  -4   2  -8   28.73    3.05
   4   2   8   25.40    2.75
  -4   2  -8   24.02    3.32
   4   2   8   26.72    4.45
  -6  -2  -8   26.68    5.51
  -6  -2  -8   17.54    3.39
   6  -2   8   21.17    3.23
   6  -2   8   17.71    4.29
   6  -2   8   22.48    2.95
  -6  -2  -8   21.34    2.87
  -6   2  -8   17.43    3.22
  -6   2  -8   21.37    4.58
   6   2   8   20.05    2.69
  -6   2  -8   21.36    2.91
   6   2   8   31.13    5.24
   6   2   8   14.40    3.05
   8  -2   8   30.33    6.16
   8  -2   8   25.00    3.57
  -8  -2  -8   31.61    3.88
  -8  -2  -8   29.07    4.07
   8  -2   8   22.54    3.90
  -8   2  -8   26.77    4.16
   8   2   8   28.15    4.08
   8   2   8   40.18    6.37
  -8   2  -8   24.56    3.95
 -10  -2  -8   12.63    3.33
  10  -2   8   13.92    3.43
 -10  -2  -8    7.43    3.06
  10  -2   8   15.56    6.89
  10  -2   8    9.03    3.13
  10   2   8    6.08    3.09
  10   2   8   22.60    6.18
 -10   2  -8    8.87    3.13
  12  -2   8    1.63    3.02
 -12  -2  -8    2.35    3.41
 -12  -2  -8    1.07    2.67
  12  -2   8   -0.69    2.70
 -12   2  -8   -0.95    2.88
  12   2   8   -0.08    3.02
  12   2   8   -8.61    5.33
  14  -2   8   24.80    5.20
 -14  -2  -8   29.60    5.05
  14  -2   8   20.11    5.11
 -14   2  -8   14.21    4.16
  14   2   8   17.03    4.99
  16  -2   8   13.29    5.27
 -16  -2  -8    8.56    4.47
  16   2   8   20.18    5.64
 -16   2  -8    4.86    4.26
  21  -3  -8    2.66    4.16
 -21  -3   8    3.74    4.14
  21   3  -8    3.76    3.93
  21   3  -8    5.76    4.60
 -21   3   8    2.14    4.02
 -21   3   8   -0.12    3.39
  19  -3  -8   17.32    4.79
  19  -3  -8   28.02    5.49
  19  -3  -8   22.34    5.02
 -19  -3   8   17.96    4.89
  19   3  -8   23.63    4.56
  19   3  -8   25.94    5.20
 -19   3   8   19.90    4.52
 -19   3   8   12.69    4.70
  17  -3  -8    3.24    3.38
 -17  -3   8    5.00    3.62
 -17  -3   8    5.58    3.54
  17  -3  -8    3.21    3.43
  17  -3  -8    3.19    3.28
 -17   3   8    5.06    3.12
 -17   3   8    2.80    3.18
  17   3  -8    7.78    3.81
  17   3  -8    6.07    3.18
 -15  -3   8    8.61    3.46
  15  -3  -8    8.80    3.43
  15  -3  -8   14.59    3.42
  15  -3  -8    8.08    3.31
 -15  -3   8   10.38    3.41
  15   3  -8   10.56    3.34
 -15   3   8   14.04    3.19
  15   3  -8    8.22    2.81
 -15   3   8    8.02    3.32
  13  -3  -8   10.90    3.18
  13  -3  -8   12.51    3.20
 -13  -3   8   13.71    3.30
  13  -3  -8   16.87    3.86
 -13  -3   8   13.26    3.36
 -13   3   8   14.66    3.32
 -13   3   8   17.13    2.97
  13   3  -8   18.53    2.94
  13   3  -8   17.08    3.08
 -11  -3   8   68.74    4.16
 -11  -3   8   56.09    5.24
  11  -3  -8   57.94    5.53
  11  -3  -8   58.25    5.13
  11  -3  -8   65.02    5.38
 -11  -3   8   66.03    5.64
  11   3  -8   56.66    4.19
  11   3  -8   58.53    4.39
 -11   3   8   64.94    4.58
 -11   3   8   73.24    5.96
   9  -3  -8   54.16    4.77
  -9  -3   8   44.63    4.37
   9  -3  -8   54.15    4.79
  -9  -3   8   51.81    3.67
   9  -3  -8   57.56    3.72
   9  -3  -8   57.55    5.39
  -9  -3   8   44.70    4.55
   9   3  -8   47.70    3.67
   9   3  -8   56.40    4.16
  -9   3   8   51.76    4.64
  -9   3   8   56.94    3.62
   9   3  -8   55.59    3.81
  -7  -3   8  439.26   17.11
   7  -3  -8  441.02   17.22
  -7  -3   8  435.01   18.11
   7  -3  -8  456.92   18.06
  -7   3   8  429.30   17.90
   7   3  -8  457.23   17.40
   7   3  -8  445.45   17.99
   7   3  -8  439.77   17.39
  -7   3   8  447.27   17.90
  -7   3   8  465.37   16.61
   7   3  -8  450.23   16.74
   5  -3  -8    3.23    2.24
  -5  -3   8    5.48    1.70
   5  -3  -8    4.54    1.75
  -5  -3   8    3.38    2.12
   5   3  -8    1.29    1.78
  -5   3   8    1.58    1.64
  -5   3   8    3.13    1.94
   5   3  -8    3.63    2.06
   5   3  -8    2.88    1.37
   3  -3  -8   13.82    3.16
  -3  -3   8   13.28    2.37
  -3  -3   8   17.38    2.79
   3  -3  -8   12.85    2.42
   3   3  -8   14.53    3.05
  -3   3   8   15.32    2.33
   3   3  -8   13.89    2.56
  -3   3   8   14.63    2.61
   1  -3  -8   60.31    4.57
  -1  -3   8   76.33    4.82
   1  -3  -8   68.88    5.87
  -1  -3   8   65.27    4.48
  -1   3   8   64.38    4.60
   1   3  -8   71.85    4.79
  -1   3   8   67.25    4.29
   1   3  -8   68.29    5.91
  -1  -3  -8  257.02   12.54
  -1  -3  -8  268.80   10.15
   1  -3   8  260.31   11.57
   1  -3   8  274.37   11.44
  -1  -3  -8  266.35   11.72
   1   3   8  262.01   10.99
   1   3   8  267.97   13.12
  -1   3  -8  265.22   11.72
   1   3   8  278.54   11.73
   3  -3   8   26.32    2.42
  -3  -3  -8   29.30    3.81
   3  -3   8   25.46    4.93
  -3  -3  -8   32.53    4.93
   3  -3   8   22.08    3.30
  -3  -3  -8   26.69    2.50
  -3   3  -8   26.23    3.43
   3   3   8   26.83    4.60
  -3   3  -8   26.77    2.99
   3   3   8   24.40    2.64
   3   3   8   28.69    3.48
  -3   3  -8   24.08    4.68
  -5  -3  -8  154.94    7.20
  -5  -3  -8  138.18    8.06
   5  -3   8  152.73    7.02
   5  -3   8  144.00   10.72
   5  -3   8  150.48    8.18
  -5  -3  -8  167.73    9.80
   5   3   8  151.11    8.15
  -5   3  -8  128.57    7.94
  -5   3  -8  150.72    7.34
   5   3   8  149.27    6.98
  -5   3  -8  152.35    9.50
   5   3   8  148.01    9.88
   7  -3   8  144.35    8.67
   7  -3   8  157.21    7.94
  -7  -3  -8  163.90    8.03
  -7  -3  -8  158.93    8.88
  -7   3  -8  153.49    8.79
   7   3   8  158.43    8.87
   7   3   8  180.87   11.32
  -9  -3  -8  151.49    8.63
   9  -3   8  175.90    8.86
   9  -3   8  159.07    9.35
  -9  -3  -8  153.80    9.22
  -9   3  -8  171.76    9.55
   9   3   8  196.57   12.62
   9   3   8  134.85    9.29
 -11  -3  -8   56.24    6.44
 -11  -3  -8   75.79    6.58
  11  -3   8   53.92    6.20
  11  -3   8   72.24    6.57
  11   3   8   89.45   10.08
  11   3   8   67.18    7.19
 -11   3  -8   59.33    6.50
 -13  -3  -8   11.97    3.81
  13  -3   8   13.41    7.16
 -13  -3  -8   18.88    5.23
  13  -3   8   14.11    4.28
  13   3   8   22.93    5.11
 -13   3  -8   22.61    4.72
 -15  -3  -8   -0.07    3.74
  15  -3   8   -0.49    4.33
 -15   3  -8    1.76    4.25
  15   3   8    6.23    4.75
  20  -4  -8   -3.86    3.51
  20  -4  -8    1.31    5.00
 -20  -4   8    2.43    4.23
  20  -4  -8    6.21    4.30
 -20   4   8    1.08    3.75
  20   4  -8    6.19    4.43
 -20   4   8    4.54    3.76
  20   4  -8   -1.70    3.80
  18  -4  -8    9.80    4.69
 -18  -4   8    8.32    4.17
  18  -4  -8    4.59    3.96
 -18  -4   8   13.18    4.47
  18  -4  -8    7.81    4.10
 -18   4   8   12.09    4.08
  18   4  -8    7.68    3.63
 -18   4   8   12.14    3.89
  18   4  -8    8.21    4.19
  16  -4  -8   13.74    4.30
 -16  -4   8   15.29    4.19
 -16  -4   8   10.15    3.83
  16  -4  -8    7.34    3.83
  16  -4  -8   13.39    4.24
 -16   4   8   17.00    3.74
  16   4  -8   11.90    3.83
  16   4  -8   14.35    3.79
 -16   4   8   21.28    4.40
 -14  -4   8    6.96    3.62
  14  -4  -8    1.93    3.35
  14  -4  -8    1.74    2.79
  14  -4  -8    9.27    3.51
 -14  -4   8    6.86    3.54
 -14   4   8    6.95    2.90
  14   4  -8    5.46    2.94
  14   4  -8    5.29    2.80
 -14   4   8    6.60    3.07
  12  -4  -8   46.86    4.99
 -12  -4   8   37.86    4.77
  12  -4  -8   32.96    5.04
 -12  -4   8   38.73    4.94
  12  -4  -8   44.46    5.29
  12   4  -8   49.62    4.60
 -12   4   8   48.46    4.33
  12   4  -8   40.41    4.41
 -12   4   8   33.50    4.47
 -10  -4   8   -0.89    1.97
 -10  -4   8    1.99    2.43
  10  -4  -8    0.65    2.13
  10  -4  -8    2.68    2.41
  10  -4  -8    4.06    2.74
  10   4  -8    5.30    1.90
 -10   4   8    0.27    2.20
 -10   4   8    2.57    1.96
  10   4  -8    5.37    2.41
   8  -4  -8   13.30    3.01
   8  -4  -8   25.23    3.84
   8  -4  -8   17.25    2.50
  -8  -4   8   18.63    2.38
   8  -4  -8   13.93    2.90
  -8  -4   8   23.52    3.58
   8   4  -8   20.63    2.48
  -8   4   8   16.13    3.06
   8   4  -8   15.36    3.13
  -8   4   8   19.57    2.31
   8   4  -8   15.35    3.34
  -6  -4   8   10.93    2.06
   6  -4  -8    5.52    2.67
   6  -4  -8    8.47    2.54
   6  -4  -8   12.88    2.28
   6  -4  -8    6.55    2.27
  -6  -4   8    5.90    2.41
  -6   4   8   10.38    1.85
  -6   4   8    9.91    2.45
   6   4  -8    9.74    2.82
   6   4  -8   11.27    2.24
   6   4  -8   12.74    2.74
   4  -4  -8  191.24    8.77
   4  -4  -8  184.63    9.83
  -4  -4   8  183.87    9.24
  -4  -4   8  182.21    8.47
   4   4  -8  184.41    9.65
  -4   4   8  194.35    9.11
   4   4  -8  192.83    9.23
  -4   4   8  173.09    8.73
  -2  -4   8    5.91    2.08
   2  -4  -8    5.28    2.95
   2  -4  -8    8.81    2.29
  -2  -4   8    3.38    1.91
  -2   4   8    9.72    2.10
   2   4  -8    6.62    3.10
   2   4  -8    7.04    2.45
  -2   4   8    7.31    2.19
   0  -4   8  114.39    6.46
   0  -4  -8  112.97    6.60
   0  -4  -8  126.05    8.08
   0  -4   8  105.76    6.28
   0   4  -8  110.68    6.72
   0   4   8  113.57    6.55
   0   4  -8  117.80    7.80
   0   4   8  109.91    5.94
   2  -4   8    1.36    2.00
  -2  -4  -8    5.85    3.34
   2  -4   8    2.09    1.86
  -2  -4  -8   -1.57    1.95
   2   4   8   -3.33    4.11
  -2   4  -8    1.80    2.34
  -2   4  -8    4.57    3.50
   2   4   8    1.52    1.57
   2   4   8   -0.96    1.92
   4  -4   8   17.46    2.79
  -4  -4  -8   21.39    4.87
   4  -4   8   17.55    3.28
  -4  -4  -8   26.67    3.04
  -4  -4  -8   20.81    3.60
  -4   4  -8   20.29    4.64
   4   4   8   23.23    2.75
   4   4   8   18.63    3.34
  -4   4  -8   18.44    3.46
   4   4   8   28.53    5.37
  -6  -4  -8   95.81    6.60
   6  -4   8   72.80    6.52
  -6  -4  -8   73.78    5.41
  -6   4  -8   76.36    6.56
   6   4   8   67.70    8.29
   6   4   8   87.12    7.09
   8  -4   8    6.51    2.93
  -8  -4  -8    0.29    3.16
  -8  -4  -8    0.46    2.64
   8   4   8    2.79    3.03
   8   4   8    3.54    5.73
  -8   4  -8   -3.94    2.39
 -10  -4  -8   79.80    6.74
  10  -4   8   75.54    7.23
 -10  -4  -8   67.08    7.07
  10   4   8   66.00    6.93
 -10   4  -8   73.13    7.05
 -12  -4  -8   18.84    4.87
  12  -4   8   17.71    4.53
 -12  -4  -8   15.70    4.45
 -12   4  -8   12.01    4.10
  12   4   8   18.25    5.14
 -14  -4  -8   30.40    6.05
  14  -4   8   19.34    5.03
 -14  -4  -8   22.88    5.56
 -14   4  -8   19.79    4.73
  14   4   8   16.97    5.28
  19  -5  -8    6.05    5.48
 -19  -5   8   10.02    4.62
  19  -5  -8   10.16    4.72
  19  -5  -8   12.50    4.43
 -19  -5   8   10.55    5.17
  19   5  -8   14.06    5.47
 -19   5   8    9.30    4.58
  19   5  -8    4.67    4.47
  17  -5  -8    0.41    4.68
  17  -5  -8   -2.99    3.60
  17  -5  -8    4.78    4.05
 -17  -5   8    3.65    4.05
 -17  -5   8    3.71    3.59
 -17   5   8    5.93    3.68
 -17   5   8    5.04    4.42
  17   5  -8    1.99    3.80
  17   5  -8    1.53    3.80
 -15  -5   8    7.24    3.99
  15  -5  -8    8.74    4.51
  15  -5  -8    2.34    3.27
  15  -5  -8    9.42    3.98
 -15  -5   8    6.57    3.56
  15   5  -8    9.21    3.68
  15   5  -8    2.12    3.25
 -15   5   8   -2.57    3.41
 -15   5   8    5.12    3.43
  13  -5  -8    5.22    3.37
  13  -5  -8   10.04    3.53
 -13  -5   8    8.12    3.24
 -13  -5   8    8.57    3.56
  13  -5  -8    8.51    4.24
 -13   5   8    7.36    3.11
 -13   5   8    9.83    5.16
  13   5  -8    5.18    3.36
  13   5  -8    8.04    3.57
  11  -5  -8   81.96    7.72
  11  -5  -8   79.09    7.44
  11  -5  -8   96.17    7.46
 -11  -5   8   79.69    7.27
  11   5  -8   84.55    7.10
  11   5  -8   81.11    7.10
 -11   5   8   83.34    7.03
  11   5  -8   79.18    7.15
   9  -5  -8   13.01    3.18
   9  -5  -8   10.12    3.30
   9  -5  -8   22.33    4.46
  -9  -5   8    9.17    3.38
  -9   5   8    6.82    2.87
   9   5  -8   13.03    3.66
   9   5  -8   10.35    3.09
  -7  -5   8   49.66    3.96
   7  -5  -8   39.84    4.04
   7  -5  -8   43.36    4.61
   7  -5  -8   44.31    4.82
  -7  -5   8   42.17    4.86
   7  -5  -8   38.48    5.28
   7   5  -8   55.48    5.83
   7   5  -8   43.92    5.04
  -7   5   8   45.12    4.84
   5  -5  -8   10.77    2.88
  -5  -5   8    5.47    2.04
   5  -5  -8    7.89    2.67
   5  -5  -8    7.60    3.36
   5  -5  -8   10.43    2.53
  -5  -5   8    6.78    2.69
   5   5  -8    4.91    2.89
   5   5  -8    3.71    3.11
  -5   5   8    8.23    2.71
   3  -5  -8  133.08    7.05
   3  -5  -8  131.83    7.15
   3  -5  -8  118.24    8.45
  -3  -5   8  128.94    6.92
  -3  -5   8  122.75    7.26
   3  -5  -8  116.11    7.37
   3   5  -8  119.07    8.36
   3   5  -8  122.96    7.56
  -3   5   8  116.88    7.22
  -1  -5   8   73.54    5.36
   1  -5  -8   88.41    5.79
  -1  -5   8   76.93    5.57
  -1   5   8   82.61    5.89
  -1   5   8   80.18    5.20
   1   5  -8   77.51    7.41
   1   5  -8   82.88    6.15
  -1  -5  -8   41.18    4.76
   1  -5   8   23.83    3.55
  -1  -5  -8   36.37    5.97
   1  -5   8   35.27    3.89
  -1   5  -8   24.98    4.01
   1   5   8   25.57    3.73
  -1   5  -8   21.70    4.86
   1   5   8   32.64    3.44
   3  -5   8    2.16    2.53
   3  -5   8    4.53    2.20
  -3  -5  -8    1.69    4.58
  -3  -5  -8    3.10    2.66
   3   5   8   -2.27    2.01
  -3   5  -8    0.89    3.66
  -3   5  -8    3.02    2.96
   3   5   8    2.18    2.96
  -5  -5  -8  162.99    9.55
   5  -5   8  167.89    9.44
   5   5   8  162.24    9.44
  -5   5  -8  160.67    9.44
  -7  -5  -8   32.07    4.94
   7  -5   8   28.70    4.67
  -7   5  -8   46.43    5.61
   7   5   8   34.97    5.06
  -9  -5  -8    3.58    3.56
   9  -5   8    0.15    3.16
   9   5   8   -0.62    3.27
  -9   5  -8   -3.18    2.78
 -11  -5  -8   -5.21    3.25
  11  -5   8   -5.08    2.72
  11   5   8    0.65    3.67
 -11   5  -8    3.63    3.76
 -13  -5  -8   12.59    4.90
  13  -5   8    7.99    4.34
  13   5   8    1.60    4.32
 -13   5  -8    3.96    3.73
 -15  -5  -8    0.20    4.93
  15  -5   8    1.86    4.44
  15   5   8    2.07    5.45
  18  -6  -8   21.35    5.67
  18  -6  -8   27.96    5.67
  18  -6  -8   23.07    6.81
 -18  -6   8   36.13    6.71
 -18  -6   8   30.64    5.81
  18   6  -8   31.30    6.62
 -18   6   8   31.65    6.00
  16  -6  -8   39.00    6.10
  16  -6  -8   38.23    6.50
  16  -6  -8   55.35    7.95
 -16  -6   8   54.72    6.87
 -16  -6   8   41.33    6.51
  16   6  -8   35.92    6.67
 -16   6   8   32.44    5.67
  14  -6  -8    7.70    4.94
  14  -6  -8    1.38    3.25
 -14  -6   8    3.35    3.79
  14  -6  -8    4.78    3.70
  14   6  -8    1.70    4.16
 -14   6   8   -0.96    2.91
  14   6  -8    3.95    4.00
  12  -6  -8    4.43    3.11
 -12  -6   8    6.78    3.62
  12  -6  -8    4.92    3.32
  12  -6  -8    4.83    4.31
 -12   6   8   12.92    3.86
  12   6  -8    2.06    3.44
  12   6  -8    9.55    4.40
  10  -6  -8   14.81    3.83
  10  -6  -8    4.22    3.45
  10  -6  -8    5.67    4.07
 -10  -6   8    5.15    3.47
  10   6  -8   -0.69    3.16
  10   6  -8   12.72    4.30
 -10   6   8   10.27    3.28
   8  -6  -8   12.81    4.07
   8  -6  -8   10.87    4.52
   8  -6  -8   16.90    3.77
  -8  -6   8   15.45    3.75
   8   6  -8    8.51    3.25
  -8   6   8   13.67    3.38
   8   6  -8   11.57    4.33
   6  -6  -8   37.85    4.36
  -6  -6   8   30.67    4.56
  -6  -6   8   36.32    3.88
   6  -6  -8   32.07    5.46
   6  -6  -8   28.53    3.85
   6  -6  -8   28.96    4.45
   6   6  -8   24.98    4.22
  -6   6   8   29.76    4.17
   6   6  -8   25.90    5.20
  -4  -6   8    1.13    2.42
   4  -6  -8    1.42    2.54
  -4  -6   8    1.94    2.15
   4  -6  -8    1.67    2.47
   4  -6  -8   -1.53    3.15
   4  -6  -8    1.71    2.37
   4   6  -8    0.91    3.59
   4   6  -8    2.78    2.88
  -4   6   8    1.24    2.44
  -2  -6   8   75.23    5.86
   2  -6  -8   76.19    5.44
   2  -6  -8   77.38    6.37
  -2  -6   8   69.80    6.15
   2  -6  -8   92.47    6.31
   2  -6  -8   69.93    7.56
  -2   6   8   67.05    6.11
   2   6  -8   71.84    7.77
   2   6  -8   68.44    6.41
   0  -6   8   34.86    4.37
   0  -6  -8   33.72    5.85
   0  -6  -8   36.85    4.08
   0  -6  -8   34.56    4.24
   0  -6  -8   29.97    4.40
   0  -6   8   32.23    4.21
   0   6  -8   21.47    4.20
   0   6  -8   48.95    6.87
   0   6   8   22.84    4.01
   2  -6   8    4.95    2.57
   2  -6   8    8.13    3.04
  -2  -6  -8   -0.90    2.51
   2   6   8    4.14    2.89
  -2   6  -8    0.40    4.49
  -2   6  -8    7.80    3.31
  -4  -6  -8   11.05    3.58
   4  -6   8   13.37    3.79
  -4   6  -8   13.24    3.74
   4   6   8   14.94    3.60
  -6  -6  -8   54.71    6.35
   6  -6   8   65.53    6.74
  -6   6  -8   62.80    6.56
   6   6   8   54.31    6.02
   8  -6   8    9.79    3.92
  -8  -6  -8    6.71    4.04
  -8   6  -8    8.65    3.76
   8   6   8    8.38    3.90
  10  -6   8   10.53    4.18
 -10  -6  -8    9.06    4.60
 -10   6  -8   17.82    4.61
  10   6   8    6.81    3.90
 -12  -6  -8    3.91    4.74
  12  -6   8    1.14    3.81
 -12   6  -8    5.18    4.08
  12   6   8   15.64    4.59
  17  -7  -8    4.54    4.37
  17  -7  -8    4.59    6.72
 -17  -7   8   12.75    5.27
  17  -7  -8    6.22    4.08
 -17   7   8   10.33    4.60
  17   7  -8    2.18    5.85
  17   7  -8    3.51    4.87
  15  -7  -8   13.84    4.78
  15  -7  -8   13.16    6.52
  15  -7  -8    3.38    3.83
 -15  -7   8   -0.94    4.75
 -15   7   8   10.17    4.24
  15   7  -8   -0.30    5.51
  15   7  -8   12.50    5.02
  13  -7  -8   -0.54    5.07
 -13  -7   8    5.90    4.37
  13  -7  -8    3.29    4.29
  13  -7  -8   -2.84    3.07
 -13   7   8    8.86    3.93
  13   7  -8   -4.47    3.84
  13   7  -8   -8.76    4.26
 -11  -7   8    3.00    3.70
  11  -7  -8   -0.36    3.36
  11  -7  -8   -4.62    4.59
  11  -7  -8   -1.26    3.77
  11   7  -8    1.26    3.64
 -11   7   8   -0.64    3.10
  11   7  -8   -2.65    4.23
   9  -7  -8    1.88    3.69
   9  -7  -8    5.54    3.52
   9  -7  -8    2.44    4.74
  -9  -7   8    4.24    3.36
  -9   7   8    5.72    3.25
   9   7  -8    7.10    3.95
   9   7  -8    2.78    4.71
   7  -7  -8  114.58   10.57
  -7  -7   8   99.20    8.39
   7  -7  -8  110.19    7.72
   7  -7  -8  108.52    8.62
   7   7  -8  115.54    8.47
   7   7  -8  107.47   10.14
  -7   7   8   97.29    7.59
  -5  -7   8   11.73    3.21
   5  -7  -8   12.67    3.80
  -5  -7   8   15.29    3.90
   5  -7  -8   18.21    6.37
   5  -7  -8   12.56    3.59
   5  -7  -8   14.04    3.62
   5   7  -8   14.26    4.19
   5   7  -8   11.56    5.12
  -5   7   8    5.72    2.98
   3  -7  -8   50.64    5.92
   3  -7  -8   43.97    5.01
  -3  -7   8   25.54    4.26
  -3  -7   8   32.44    4.28
   3  -7  -8   33.72    6.66
   3  -7  -8   36.96    4.91
   3   7  -8   46.82    7.37
   3   7  -8   28.65    5.02
  -3   7   8   41.43    5.16
   1  -7  -8   16.19    3.57
   1  -7  -8    5.82    5.31
   1  -7  -8    9.51    3.35
  -1  -7   8   11.69    3.41
  -1  -7   8    5.95    3.10
   1  -7  -8    5.84    3.47
   1   7  -8   -1.68    4.86
   1   7  -8    8.19    3.62
  -1   7   8    7.73    3.20
   1  -7   8   12.30    3.67
   1  -7   8   11.43    3.29
  -1  -7  -8   12.41    3.73
   1   7   8   10.41    3.57
  -1   7  -8    7.88    3.86
  -1   7  -8    6.08    5.24
   3  -7   8    4.98    3.51
  -3  -7  -8    6.58    3.41
  -3   7  -8   10.26    4.14
   3   7   8   13.35    3.71
  -5  -7  -8   30.32    5.40
   5  -7   8   33.06    5.21
  -5   7  -8   28.45    5.25
   5   7   8   34.74    5.11
   7  -7   8   39.36    5.91
  -7  -7  -8   37.65    6.12
   7   7   8   26.91    5.32
  -7   7  -8   38.75    6.04
  -9  -7  -8    7.84    4.58
   9  -7   8    9.98    4.56
   9   7   8   10.31    4.15
  -9   7  -8    8.36    4.91
  11  -7   8    5.42    3.97
 -11  -7  -8   12.13    5.45
  11   7   8   10.39    4.49
 -11   7  -8    5.62    5.03
 -16  -8   8   -1.51    4.93
  16  -8  -8   13.00    7.88
  16  -8  -8   -3.34    3.49
  16   8  -8    0.41    6.80
 -16   8   8    6.07    4.37
  16   8  -8   -3.79    4.92
  14  -8  -8   11.78    4.93
  14  -8  -8    0.22    6.46
 -14  -8   8    2.14    5.03
  14  -8  -8    2.16    4.92
  14   8  -8    9.77    6.70
  14   8  -8    2.88    5.11
 -14   8   8   -0.33    3.42
 -12  -8   8    5.57    4.76
  12  -8  -8    7.09    4.63
  12  -8  -8    3.84    4.79
  12  -8  -8    7.83    6.72
  12   8  -8    8.19    4.81
 -12   8   8    8.27    4.01
  12   8  -8    0.37    5.55
  10  -8  -8   25.83    6.12
  10  -8  -8   27.77    5.44
  10  -8  -8   27.40    7.48
 -10  -8   8   30.65    5.44
  10   8  -8   31.00    7.50
 -10   8   8   32.77    5.21
  10   8  -8   33.30    5.77
   8  -8  -8   20.67    4.69
   8  -8  -8   10.64    6.02
  -8  -8   8   15.49    4.37
   8  -8  -8   13.24    5.06
   8   8  -8   12.15    4.76
   8   8  -8   17.35    6.21
  -8   8   8    0.49    3.40
  -6  -8   8   14.93    4.20
   6  -8  -8   17.89    4.36
   6  -8  -8   18.71    4.96
   6  -8  -8    5.37    5.78
   6   8  -8   13.43    6.12
   6   8  -8   15.29    4.73
  -6   8   8   14.92    3.96
   4  -8  -8   25.88    5.20
   4  -8  -8   24.94    4.63
   4  -8  -8   27.08    7.49
  -4  -8   8   21.09    4.38
  -4  -8   8   26.49    7.48
   4  -8  -8   19.70    4.32
   4   8  -8   23.19    5.13
  -4   8   8   17.04    4.29
   4   8  -8   18.74    6.98
   2  -8  -8    6.63    4.01
   2  -8  -8   -5.21    3.02
   2  -8  -8    3.58    3.21
  -2  -8   8    1.88    3.05
  -2  -8   8    3.29    3.11
   2   8  -8    3.50    5.40
  -2   8   8    3.21    3.21
   2   8  -8   -3.74    3.56
   0  -8   8   18.99    4.12
   0  -8  -8   23.85    4.68
   0  -8   8   23.13    4.73
   0   8  -8   41.98    8.40
   0   8  -8   35.63    5.72
   0   8   8   22.52    4.56
  -2  -8  -8   -3.62    3.21
   2  -8   8   -1.70    3.21
  -2   8  -8    0.53    3.83
   2   8   8   -8.26    2.34
  -4  -8  -8    1.84    3.17
   4  -8   8    3.08    3.54
   4   8   8    4.71    3.65
  -4   8  -8    4.25    4.02
   6  -8   8    8.49    4.53
  -6  -8  -8    7.29    3.98
   6   8   8   10.73    3.96
  -6   8  -8   12.43    4.93
  -8  -8  -8    1.41    4.86
   8  -8   8    1.11    4.15
   8   8   8   -1.49    3.49
  -8   8  -8    5.35    5.05
  10  -8   8   29.57    5.89
 -10  -8  -8   25.01    6.52
  10   8   8   14.38    5.18
 -10   8  -8   17.63    6.01
 -13  -9   8   39.78    7.39
  13  -9  -8   34.64    9.10
  13  -9  -8   17.43    5.50
  13  -9  -8   27.60    7.16
 -13   9   8   23.01    5.74
  13   9  -8   20.61    8.76
  13   9  -8   33.61    7.05
  11  -9  -8    4.82    7.03
 -11  -9   8    2.81    3.84
  11  -9  -8   -1.32    4.13
  11  -9  -8    2.82    4.98
  11   9  -8   -0.45    4.66
  11   9  -8   13.60    7.30
 -11   9   8    9.25    4.60
   9  -9  -8   33.54    9.16
  -9  -9   8   24.18    6.04
   9  -9  -8   32.72    5.89
   9  -9  -8   20.01    5.85
   9   9  -8   23.19    6.15
  -9   9   8   29.01    5.55
   9   9  -8   17.69    6.87
   7  -9  -8    0.48    4.52
   7  -9  -8    9.20    4.58
  -7  -9   8    3.89    4.07
   7   9  -8    0.71    6.36
  -7   9   8    4.98    3.61
   7   9  -8    2.52    4.95
   5  -9  -8    7.21    4.22
   5  -9  -8    4.07    4.55
  -5  -9   8    2.71    3.62
   5   9  -8    6.46    4.67
   5   9  -8   -2.08    5.88
  -5   9   8    2.01    3.54
  -3  -9   8    0.13    3.26
   3  -9  -8   -0.87    3.67
   3  -9  -8    2.13    4.96
   3  -9  -8    1.14    4.39
   3   9  -8   -3.72    3.96
  -3   9   8    4.18    3.73
   3   9  -8    2.67    6.68
  -1  -9   8    5.71    3.75
   1  -9  -8    8.83    4.09
  -1  -9   8    0.39    3.50
   1   9  -8    2.43    4.11
  -1   9   8   10.38    4.19
  -1  -9  -8   45.29    6.18
   1  -9   8   40.31    6.03
  -1   9  -8   39.24    6.60
   1   9   8   44.72    6.45
  -3  -9  -8   17.80    5.14
   3  -9   8   13.52    4.55
  -3   9  -8    8.23    5.24
   3   9   8   14.59    4.50
   5  -9   8   13.54    5.07
  -5  -9  -8    5.73    4.18
   5   9   8    8.82    4.37
  -5   9  -8   11.65    5.22
  -7  -9  -8    0.19    3.78
   7  -9   8    2.61    4.69
  -7   9  -8    2.02    4.79
   7   9   8    5.93    4.59
 -10 -10   8   23.28    5.82
  10 -10  -8   14.53    5.64
  10  10  -8    3.38    7.89
  10  10  -8   12.51    6.23
 -10  10   8   16.70    5.49
   8 -10  -8    4.31    4.66
   8 -10  -8   -3.99    4.50
  -8 -10   8    4.58    4.50
   8  10  -8    6.71    8.16
  -8  10   8    4.86    3.99
   8  10  -8   11.84    6.00
   6 -10  -8    7.69    5.35
   6 -10  -8   -0.52    4.47
  -6 -10   8    7.61    4.53
   6  10  -8   -1.56    7.50
   6  10  -8    4.53    5.77
  -6  10   8    2.78    4.13
  -4 -10   8    7.82    4.29
   4  10  -8   10.48    5.75
  -4  10   8   13.66    4.67
  -2 -10   8    0.32    4.26
   2 -10  -8   -1.52    4.16
  -2  10   8   -1.80    3.76
   2  10  -8    5.51    5.27
   0 -10   8   18.61    5.38
   0 -10  -8   14.39    5.09
   0  10   8   22.15    5.39
   0  10  -8   14.74    5.89
  -2 -10  -8   21.58    5.65
   2 -10   8   22.02    5.47
   2  10   8   24.60    5.47
  -2  10  -8   18.47    6.56
   4 -10   8   17.37    5.44
  -4 -10  -8   17.93    5.51
  -4  10  -8   16.57    6.20
   4  10   8   16.32    5.18
 -22   0   9    1.11    3.99
  22   0  -9    3.65    3.90
  22   0  -9   -5.81    3.35
 -20   0   9   -1.36    3.16
  20   0  -9   -0.86    3.28
  20   0  -9    0.15    3.06
 -18   0   9    2.25    3.48
 -18   0   9   -3.92    2.84
  18   0  -9   -0.22    2.27
  16   0  -9   -1.17    1.75
  16   0  -9    1.46    2.92
  16   0  -9   -1.19    2.82
 -16   0   9   -2.70    2.31
 -16   0   9    0.54    2.94
 -14   0   9    0.51    2.33
 -14   0   9   -0.79    2.07
  14   0  -9   -0.41    2.20
  14   0  -9    2.12    2.18
  14   0  -9   -0.31    1.28
  14   0  -9   -0.10    1.54
 -14   0   9    1.86    2.66
 -12   0   9    0.37    2.00
 -12   0   9   -0.69    1.74
 -12   0   9    0.76    1.66
 -12   0   9    0.25    1.72
 -10   0   9    0.26    1.60
 -10   0   9   -1.34    1.53
 -10   0   9   -0.38    1.39
 -10   0   9   -1.89    1.48
  -8   0   9   -0.51    1.26
  -8   0   9   -1.70    1.30
  -8   0   9    0.85    1.53
  -8   0   9    3.55    1.80
   6   0  -9    0.56    0.93
  -6   0   9   -2.47    1.31
  -6   0   9   -1.63    1.23
  -6   0   9    0.36    1.19
  -6   0   9   -2.37    1.36
   6   0  -9    0.49    0.91
  -4   0   9    2.45    1.59
  -4   0   9   -0.45    1.36
   4   0  -9    1.46    1.56
   4   0  -9   -0.42    1.09
   4   0  -9    1.42    1.51
   2   0  -9    2.00    1.75
   2   0  -9   -0.56    1.83
  -2   0   9   -0.39    1.25
  -2   0   9   -0.46    1.34
   2   0  -9   -0.35    1.17
   0   0  -9    0.35    2.08
   0   0   9   -0.83    1.40
   0   0  -9    0.61    1.68
   0   0   9   -0.47    1.20
   0   0  -9   -0.66    1.22
   2   0   9    1.24    1.39
   2   0   9   -1.13    1.35
  -2   0  -9   -1.18    1.63
  -2   0  -9   -1.59    1.26
  -2   0  -9    0.22    2.36
   4   0   9    1.56    3.02
   4   0   9    0.60    1.55
  -4   0  -9   -0.27    2.96
   4   0   9    0.28    1.65
  -4   0  -9    0.89    1.81
  -4   0  -9   -0.38    1.61
   6   0   9   -0.55    1.72
  -6   0  -9   -2.16    1.75
  -6   0  -9   -1.79    1.96
   6   0   9    2.79    3.45
  -6   0  -9    6.09    3.81
   6   0   9    1.36    1.88
   8   0   9   -1.97    2.08
  -8   0  -9    1.92    2.36
   8   0   9    2.19    2.49
   8   0   9   -1.36    4.31
  -8   0  -9   -0.20    2.23
  10   0   9    0.31    2.53
  10   0   9   -2.13    2.57
 -10   0  -9   -1.54    2.92
 -10   0  -9    1.90    2.57
  12   0   9   -2.27    2.95
 -12   0  -9    0.06    2.86
 -14   0  -9    0.67    3.53
  14   0   9    1.38    3.93
  16   0   9   -1.81    4.18
 -16   0  -9    0.37    3.55
  21  -1  -9    8.31    4.01
  21  -1  -9   -2.58    3.30
 -21  -1   9    7.83    4.01
  21   1  -9   -3.45    3.72
  21   1  -9   -0.40    3.01
 -21   1   9    0.06    3.67
 -19  -1   9   25.59    4.79
  19  -1  -9   18.29    3.92
  19   1  -9   33.65    5.35
 -19   1   9   22.83    4.92
 -19   1   9   20.09    4.59
  19   1  -9   18.06    3.82
  17  -1  -9    0.95    3.08
  17  -1  -9   -0.54    2.20
 -17  -1   9    2.77    3.17
  17  -1  -9    2.83    2.85
  17   1  -9    3.12    2.19
  17   1  -9    0.03    2.77
 -17   1   9    5.68    3.17
 -17   1   9    0.83    3.02
 -15  -1   9    0.46    2.76
 -15  -1   9   11.51    3.14
  15  -1  -9    7.76    2.86
 -15  -1   9    8.69    3.32
  15  -1  -9    5.69    2.90
  15  -1  -9    4.95    2.11
 -15   1   9    5.44    3.10
  15   1  -9    7.13    1.81
 -15   1   9    3.00    2.64
  13  -1  -9  203.26    9.68
  13  -1  -9  198.57    8.40
 -13  -1   9  189.79    9.75
 -13  -1   9  203.59    9.77
  13  -1  -9  186.26    8.23
  13  -1  -9  180.46    9.80
 -13  -1   9  208.54    9.63
 -13  -1   9  204.39    9.19
 -13   1   9  196.92    9.49
 -13   1   9  195.60   10.04
 -13   1   9  201.32    8.99
 -11  -1   9   22.82    3.11
 -11  -1   9   22.84    3.04
 -11  -1   9   18.53    2.77
  11  -1  -9   18.54    1.66
  11  -1  -9   17.48    1.63
 -11  -1   9   24.46    2.92
 -11   1   9   25.90    3.07
 -11   1   9   24.87    2.86
 -11   1   9   20.25    2.91
 -11   1   9   19.56    3.16
   9  -1  -9  200.99    7.90
   9  -1  -9  204.85    9.08
  -9  -1   9  212.10    9.39
   9  -1  -9  204.52    7.93
  -9  -1   9  215.10    9.71
  -9  -1   9  217.81    9.28
  -9  -1   9  206.05    9.21
  -9   1   9  232.48    9.11
  -9   1   9  210.76    9.47
  -9   1   9  221.72    9.69
   7  -1  -9    3.02    1.60
  -7  -1   9    6.75    1.91
   7  -1  -9    1.90    1.29
  -7  -1   9    4.53    1.83
   7  -1  -9    3.62    1.29
  -7  -1   9    4.60    1.67
  -7  -1   9    0.03    1.74
  -7   1   9    5.18    1.51
  -7   1   9    3.32    1.73
  -7   1   9    4.69    2.00
   5  -1  -9   18.11    2.39
   5  -1  -9   23.81    1.94
  -5  -1   9   22.10    2.09
  -5  -1   9   22.58    2.67
   5  -1  -9   17.20    2.45
  -5  -1   9   21.02    2.84
   5  -1  -9   18.55    2.62
  -5   1   9   24.94    2.81
  -5   1   9   27.51    2.84
   5   1  -9   19.11    2.23
   5   1  -9   21.45    2.30
   5   1  -9   25.51    2.55
  -3  -1   9  722.64   28.08
  -3  -1   9  726.75   28.27
  -3  -1   9  773.80   27.25
   3  -1  -9  776.65   28.52
   3  -1  -9  770.98   28.32
  -3   1   9  761.71   27.94
   3   1  -9  754.18   28.33
  -3   1   9  764.23   28.18
   3   1  -9  778.80   27.87
  -1  -1   9   91.11    4.18
  -1  -1   9   84.27    5.00
   1  -1  -9   93.42    5.84
   1  -1  -9   90.62    4.09
   1  -1  -9   84.44    5.18
   1   1  -9   91.14    4.85
   1   1  -9   84.59    5.12
  -1   1   9   79.45    4.97
   1   1  -9   86.80    5.72
  -1   1   9   89.87    4.86
  -1  -1  -9  200.83   10.34
  -1  -1  -9  210.91    9.35
   1  -1   9  207.88    8.38
  -1  -1  -9  212.97    8.31
   1  -1   9  190.61    9.08
  -1   1  -9  188.81    9.03
   1   1   9  204.46    8.94
   1   1   9  201.96    8.93
  -1   1  -9  208.96    8.99
  -1   1  -9  209.79   10.40
   3  -1   9   28.47    2.73
  -3  -1  -9   30.42    4.60
  -3  -1  -9   26.04    2.75
  -3  -1  -9   28.62    3.35
   3  -1   9   32.72    3.51
   3  -1   9   26.18    4.49
   3   1   9   37.52    5.15
  -3   1  -9   31.25    3.32
   3   1   9   31.57    3.09
   3   1   9   32.50    3.39
  -3   1  -9   26.23    3.07
  -3   1  -9   26.49    4.44
   5  -1   9  434.36   17.84
  -5  -1  -9  444.77   19.62
   5  -1   9  448.61   19.69
  -5  -1  -9  437.30   18.00
   5  -1   9  451.13   17.45
  -5  -1  -9  442.63   17.41
   5   1   9  410.11   19.35
  -5   1  -9  443.68   17.84
  -5   1  -9  444.07   17.58
   5   1   9  443.37   17.90
  -5   1  -9  443.71   19.60
   5   1   9  446.95   17.45
   7  -1   9    2.96    4.56
  -7  -1  -9   11.51    2.70
   7  -1   9    5.70    2.47
  -7  -1  -9   11.42    3.08
   7  -1   9   13.52    2.83
   7   1   9    6.81    2.77
   7   1   9    8.80    2.39
  -7   1  -9   10.28    2.95
   7   1   9    1.19    5.38
  -7   1  -9   14.43    2.96
   9  -1   9   41.39    4.69
  -9  -1  -9   40.45    4.75
  -9  -1  -9   39.61    4.73
   9  -1   9   44.45    4.91
   9   1   9   37.19    4.45
   9   1   9   27.93    7.15
  -9   1  -9   47.89    5.41
   9   1   9   42.07    4.97
  -9   1  -9   32.40    4.41
 -11  -1  -9    1.95    2.71
  11  -1   9    1.27    2.75
  11  -1   9    0.30    2.93
 -11  -1  -9    3.93    3.60
  11   1   9    2.40    3.19
 -11   1  -9    4.55    3.02
  13  -1   9   11.49    4.27
 -13  -1  -9    4.36    3.28
 -13   1  -9    5.91    3.59
  13   1   9    2.90    4.02
 -15  -1  -9    2.42    3.69
  15  -1   9    4.88    4.75
 -15   1  -9   -1.96    3.43
  15   1   9   -2.56    4.23
  22  -2  -9   19.42    6.48
 -22  -2   9   15.77    5.25
  22   2  -9   20.89    5.33
  22   2  -9   27.48    5.76
 -22   2   9   31.05    5.80
 -22   2   9   13.55    5.61
  20  -2  -9    0.09    3.25
 -20  -2   9    1.88    3.57
 -20   2   9    3.27    4.14
  20   2  -9    3.28    3.53
 -20   2   9   -1.73    3.29
  20   2  -9    5.54    3.48
  18  -2  -9    1.70    3.19
  18  -2  -9    7.11    3.27
 -18  -2   9    4.64    3.47
  18  -2  -9    2.75    3.57
  18   2  -9    4.53    3.51
  18   2  -9    2.91    2.90
 -18   2   9    1.62    3.40
 -18   2   9    1.98    3.06
  16  -2  -9   36.65    4.43
 -16  -2   9   51.91    5.52
 -16  -2   9   38.80    5.34
  16  -2  -9   50.26    5.42
  16  -2  -9   51.86    6.06
  16   2  -9   44.47    5.24
 -16   2   9   49.39    5.95
  16   2  -9   46.12    4.19
 -16   2   9   41.13    4.76
  14  -2  -9  531.82   21.39
  14  -2  -9  557.36   22.26
 -14  -2   9  550.89   22.48
  14  -2  -9  516.88   22.61
 -14  -2   9  554.41   22.20
 -14   2   9  552.57   21.89
  14   2  -9  541.24   20.40
 -14   2   9  541.77   22.61
  14   2  -9  566.24   22.25
  12  -2  -9   36.65    4.42
 -12  -2   9   29.54    3.98
  12  -2  -9   29.40    3.90
 -12  -2   9   38.76    4.26
  12  -2  -9   29.45    3.30
 -12  -2   9   40.01    3.56
  12   2  -9   32.81    2.29
 -12   2   9   42.58    4.56
  12   2  -9   34.96    2.19
  12   2  -9   39.53    4.01
 -12   2   9   19.01    2.90
  10  -2  -9  206.71    8.80
 -10  -2   9  183.08    8.64
 -10  -2   9  181.73    9.06
  10  -2  -9  179.39    8.18
  10  -2  -9  181.13    8.25
 -10  -2   9  187.45    9.02
 -10  -2   9  185.95    8.40
 -10   2   9  187.55    8.29
 -10   2   9  187.12    9.21
 -10   2   9  180.21    9.03
   8  -2  -9   12.29    2.43
  -8  -2   9   11.26    2.34
   8  -2  -9   14.67    2.25
  -8  -2   9    8.47    2.30
  -8  -2   9   15.49    2.13
   8  -2  -9   11.91    2.06
  -8  -2   9   16.29    2.46
  -8   2   9   15.23    1.95
  -8   2   9   13.53    2.56
  -8   2   9   11.92    2.47
   8   2  -9   13.77    1.51
   8   2  -9   11.18    1.50
  -6  -2   9   17.46    1.93
  -6  -2   9   14.20    2.29
  -6  -2   9   17.00    2.71
   6  -2  -9   13.95    2.29
   6  -2  -9   18.41    2.55
  -6   2   9   15.25    2.11
   6   2  -9   13.73    2.03
   6   2  -9    9.78    2.01
   6   2  -9   11.84    2.35
  -6   2   9   16.13    2.65
  -6   2   9   14.72    2.50
   4  -2  -9   55.28    4.12
  -4  -2   9   54.77    4.49
  -4  -2   9   59.34    4.03
   4  -2  -9   57.34    4.38
   4   2  -9   53.16    4.37
   4   2  -9   59.37    4.18
  -4   2   9   55.24    3.92
  -4   2   9   59.56    4.16
   2  -2  -9  157.87    7.69
   2  -2  -9  167.87    8.46
  -2  -2   9  156.80    7.75
  -2  -2   9  149.60    7.47
   2   2  -9  167.97    7.74
  -2   2   9  164.41    7.62
  -2   2   9  155.97    7.48
   2   2  -9  158.08    8.23
   0  -2  -9   32.00    4.49
   0  -2   9   38.55    3.75
   0  -2  -9   38.55    3.70
   0  -2   9   32.39    3.43
   0   2  -9   27.27    3.22
   0   2  -9   28.55    4.13
   0   2   9   36.21    3.42
   0   2   9   33.51    3.17
  -2  -2  -9    7.16    2.66
   2  -2   9    7.64    1.51
   2  -2   9    7.94    2.20
  -2  -2  -9    8.20    3.38
  -2  -2  -9    6.91    1.69
  -2   2  -9    7.77    2.30
   2   2   9    8.77    4.03
   2   2   9    9.84    2.05
  -2   2  -9   10.06    2.30
  -2   2  -9    3.94    3.01
   2   2   9    6.26    2.20
   4  -2   9   38.02    4.00
  -4  -2  -9   42.71    5.62
   4  -2   9   37.94    3.16
  -4  -2  -9   35.43    4.02
  -4  -2  -9   31.99    3.16
  -4   2  -9   38.70    3.77
   4   2   9   46.13    4.40
   4   2   9   33.84    3.35
   4   2   9   38.95    5.53
  -4   2  -9   33.39    3.85
  -4   2  -9   38.99    5.39
  -6  -2  -9   56.36    5.30
   6  -2   9   57.33    4.53
   6  -2   9   53.67    5.06
  -6  -2  -9   64.47    4.90
  -6   2  -9   47.41    4.90
   6   2   9   61.04    5.44
  -6   2  -9   53.47    4.57
  -6   2  -9   58.10    6.97
   6   2   9   57.41    4.38
   6   2   9   46.61    6.53
  -8  -2  -9  190.04    9.62
   8  -2   9  200.06    9.76
   8  -2   9  186.11   10.09
  -8  -2  -9  186.47   10.29
  -8   2  -9  200.95   10.35
   8   2   9  207.93   10.65
   8   2   9  202.62   16.00
  10  -2   9  105.58    7.40
 -10  -2  -9   91.89    6.97
 -10  -2  -9  110.15    7.95
  10  -2   9  108.60    7.64
  10   2   9  122.51    8.44
 -10   2  -9  104.96    7.61
  12  -2   9    7.48    3.87
 -12  -2  -9   11.95    4.37
  12  -2   9    6.01    3.37
 -12  -2  -9   12.43    3.65
 -12   2  -9    2.56    3.43
  12   2   9   11.09    3.95
 -14  -2  -9    2.01    3.69
  14  -2   9    3.76    4.61
 -14   2  -9    2.50    3.62
  14   2   9    3.80    4.16
 -16  -2  -9    7.67    4.64
 -16   2  -9   25.71    5.62
  16   2   9   18.79    6.10
 -21  -3   9    6.46    4.61
  21  -3  -9    1.46    3.93
 -21   3   9    7.80    4.23
 -21   3   9    6.96    4.93
  21   3  -9    9.26    4.25
  21   3  -9    5.11    4.84
  19  -3  -9    6.87    3.76
  19  -3  -9    1.97    3.60
  19  -3  -9   -2.59    3.42
 -19  -3   9    7.31    4.10
  19   3  -9    7.50    3.87
 -19   3   9   -0.77    3.42
  19   3  -9    2.45    3.47
 -19   3   9    7.63    4.14
 -17  -3   9    5.91    3.39
 -17  -3   9   -1.81    2.88
  17  -3  -9   -4.00    3.33
  17  -3  -9    0.74    3.10
  17  -3  -9   -1.50    2.93
  17   3  -9    3.30    2.64
 -17   3   9   -2.78    2.52
  17   3  -9   -1.06    3.50
 -17   3   9   -1.86    3.12
  15  -3  -9    6.96    3.15
  15  -3  -9    7.04    3.34
 -15  -3   9    5.20    3.17
  15  -3  -9    9.20    3.28
 -15  -3   9    6.90    3.03
 -15   3   9    8.54    2.96
  15   3  -9    5.70    2.49
 -15   3   9    5.28    3.17
  15   3  -9    6.29    2.86
  13  -3  -9  161.04    9.32
  13  -3  -9  180.16    9.20
  13  -3  -9  162.30    9.91
 -13  -3   9  165.96    9.32
 -13  -3   9  186.44    9.78
 -13   3   9  172.21    9.59
  13   3  -9  163.23    8.13
  13   3  -9  176.81    8.99
 -13   3   9  193.39    8.89
  11  -3  -9    7.38    2.97
 -11  -3   9    7.57    2.88
 -11  -3   9    7.03    2.11
  11  -3  -9    9.56    2.69
  11  -3  -9    0.57    2.33
 -11  -3   9    2.66    2.25
  11   3  -9    7.63    2.29
 -11   3   9    0.67    2.21
  11   3  -9    7.82    1.97
 -11   3   9    7.70    2.16
   9  -3  -9  217.98   10.89
   9  -3  -9  212.52   10.21
  -9  -3   9  210.34   10.56
  -9  -3   9  229.98   10.43
   9  -3  -9  206.82   10.38
   9  -3  -9  224.40    9.51
  -9  -3   9  217.65    9.43
   9   3  -9  228.64    9.45
  -9   3   9  214.82   10.45
  -9   3   9  237.98    9.26
   9   3  -9  217.88   10.44
   9   3  -9  212.18    9.45
   9   3  -9  215.59    9.58
  -7  -3   9   23.96    3.42
  -7  -3   9   29.44    2.97
   7  -3  -9   20.78    2.84
   7  -3  -9   20.81    3.28
   7   3  -9   23.52    3.06
   7   3  -9   21.10    3.22
  -7   3   9   32.75    3.74
  -7   3   9   34.01    2.46
   7   3  -9   25.39    3.34
   7   3  -9   31.20    2.51
  -7   3   9   23.43    3.15
   5  -3  -9   19.61    2.75
   5  -3  -9   19.31    3.32
  -5  -3   9   23.66    3.17
  -5  -3   9   22.82    2.78
  -5   3   9   20.71    2.87
   5   3  -9   20.60    3.03
  -5   3   9   24.01    3.23
   5   3  -9   17.22    2.81
   3  -3  -9  409.56   16.51
  -3  -3   9  380.08   15.44
   3  -3  -9  388.12   15.61
  -3  -3   9  368.81   15.73
  -3   3   9  377.40   15.38
   3   3  -9  391.82   15.71
  -3   3   9  387.54   15.72
   3   3  -9  373.38   16.23
  -1  -3   9   96.02    5.43
   1  -3  -9   77.98    5.38
   1  -3  -9  100.52    6.66
  -1  -3   9   89.00    5.43
   1   3  -9   81.93    5.49
  -1   3   9   82.34    4.90
   1   3  -9   85.21    6.30
  -1   3   9   90.69    5.44
  -1  -3  -9   27.47    4.55
   1  -3   9   32.57    3.66
  -1  -3  -9   20.93    3.24
   1  -3   9   32.58    3.41
   1   3   9   20.66    2.68
  -1   3  -9   21.30    3.27
   1   3   9   21.71    3.11
  -1   3  -9   29.85    4.60
  -3  -3  -9  129.10    8.59
  -3  -3  -9  105.25    6.72
  -3  -3  -9  110.41    5.54
   3  -3   9  105.28    6.65
  -3   3  -9  115.98    6.38
  -3   3  -9  115.94    6.77
   3   3   9   98.56    6.46
   3   3   9  102.08    5.70
  -3   3  -9  118.22    8.11
   5  -3   9  272.79   12.71
  -5  -3  -9  275.85   12.81
  -5  -3  -9  283.10   14.82
  -5  -3  -9  281.98   11.64
  -5   3  -9  275.99   14.47
  -5   3  -9  285.19   11.85
   5   3   9  270.21   12.68
   5   3   9  266.97   11.55
  -5   3  -9  266.21   12.77
  -7  -3  -9   29.37    4.32
   7  -3   9   31.68    4.49
  -7  -3  -9   27.97    3.66
  -7   3  -9   29.95    4.31
   7   3   9   27.92    4.46
   9  -3   9   55.32    6.08
  -9  -3  -9   63.98    5.73
  -9  -3  -9   48.27    5.91
   9   3   9   56.87    6.13
  -9   3  -9   58.30    5.95
 -11  -3  -9   -0.40    2.99
 -11  -3  -9    0.07    3.51
  11  -3   9   -4.42    2.74
 -11   3  -9    1.75    3.08
  11   3   9   -2.36    3.44
  13  -3   9    1.21    3.33
 -13  -3  -9    7.84    4.02
 -13  -3  -9    3.18    4.49
  13   3   9    4.91    4.33
 -13   3  -9    7.92    4.16
  15  -3   9    3.94    5.20
 -15  -3  -9    4.12    4.88
  15   3   9   -1.03    4.51
 -15   3  -9    2.39    4.03
  20  -4  -9   12.70    4.90
  20  -4  -9    5.15    4.46
  20  -4  -9    8.73    5.17
 -20  -4   9    1.96    4.16
 -20   4   9    4.29    4.52
  20   4  -9   -0.48    3.58
  20   4  -9    1.57    4.13
 -20   4   9    6.86    4.30
  18  -4  -9    7.53    4.04
  18  -4  -9    2.72    4.69
  18  -4  -9    1.72    4.00
 -18  -4   9   -0.80    3.73
 -18  -4   9    1.76    3.92
 -18   4   9    2.45    3.21
  18   4  -9    3.48    3.38
 -18   4   9    4.04    3.99
  18   4  -9    8.69    4.21
  16  -4  -9   -0.58    3.00
  16  -4  -9    8.84    3.96
 -16  -4   9    2.81    3.39
  16  -4  -9    8.33    3.73
 -16  -4   9    2.46    3.34
 -16   4   9    3.29    3.44
 -16   4   9    5.83    3.39
  16   4  -9    4.35    3.05
  16   4  -9    9.22    3.46
  14  -4  -9  125.61    8.77
  14  -4  -9  115.36    8.01
 -14  -4   9  116.10    8.30
  14  -4  -9  127.30    8.47
 -14  -4   9  130.27    8.58
  14   4  -9  134.41    7.99
  14   4  -9  128.13    7.64
 -14   4   9  118.19    7.51
 -14   4   9  115.91    8.29
 -12  -4   9    1.41    2.57
  12  -4  -9   -0.63    2.80
 -12  -4   9    8.15    3.17
  12  -4  -9    3.65    2.57
  12  -4  -9    3.15    2.84
 -12   4   9    5.65    2.56
  12   4  -9    2.95    2.47
  12   4  -9    2.11    2.43
 -12   4   9    3.78    2.84
  10  -4  -9   31.26    4.24
 -10  -4   9   39.74    4.73
 -10  -4   9   42.81    3.75
  10  -4  -9   38.48    4.86
  10  -4  -9   33.43    4.50
  10   4  -9   36.85    3.78
  10   4  -9   36.38    4.13
  10   4  -9   42.76    4.88
 -10   4   9   39.45    4.55
   8  -4  -9   33.13    3.93
  -8  -4   9   36.84    3.46
   8  -4  -9   37.78    4.68
  -8  -4   9   37.71    4.45
   8  -4  -9   26.64    3.95
   8  -4  -9   40.49    3.80
  -8   4   9   35.04    4.12
   8   4  -9   29.58    4.00
   8   4  -9   26.46    3.71
  -6  -4   9    4.29    2.32
  -6  -4   9    9.55    2.11
   6  -4  -9   10.63    2.41
  -6   4   9    3.54    2.20
   6   4  -9    1.93    2.36
  -6   4   9    7.58    2.49
   6   4  -9    3.68    2.67
   4  -4  -9  214.70    9.97
  -4  -4   9  213.71   10.39
  -4  -4   9  228.59    9.98
   4  -4  -9  223.06   11.22
   4   4  -9  210.91   10.32
  -4   4   9  226.08   10.05
   4   4  -9  207.95   10.94
  -4   4   9  219.96   10.30
  -2  -4   9   61.63    4.83
   2  -4  -9   58.33    5.00
   2  -4  -9   64.25    6.37
  -2  -4   9   64.49    5.26
  -2   4   9   53.47    4.45
   2   4  -9   63.90    5.44
   2   4  -9   53.38    5.82
  -2   4   9   56.39    4.91
   0  -4   9  139.82    7.45
   0  -4  -9  154.04    9.36
   0  -4  -9  134.02    7.60
   0  -4   9  131.71    7.17
   0   4  -9  123.13    7.70
   0   4   9  129.20    7.43
   0   4   9  128.35    6.77
   0   4  -9  146.44    9.10
  -2  -4  -9  252.73   11.93
  -2  -4  -9  264.43   13.46
   2  -4   9  243.76   11.10
   2  -4   9  248.64   11.62
   2   4   9  241.03   10.57
   2   4   9  253.26   11.75
  -2   4  -9  249.94   13.08
  -2   4  -9  244.42   11.78
   4  -4   9    6.28    2.66
  -4  -4  -9   13.37    4.78
  -4  -4  -9    3.69    2.70
  -4   4  -9    8.23    3.02
   4   4   9    2.69    2.15
   4   4   9    5.07    2.68
  -4   4  -9   15.40    4.43
  -4   4  -9    5.07    2.43
  -6  -4  -9   22.76    4.38
   6  -4   9   27.42    4.38
   6   4   9   25.22    4.16
  -6   4  -9   27.66    4.35
   8  -4   9   11.69    3.58
  -8  -4  -9   10.31    3.95
  -8   4  -9   14.17    3.77
   8   4   9    7.73    3.76
  10  -4   9   44.11    5.86
 -10  -4  -9   50.38    6.28
 -10   4  -9   38.17    5.73
  10   4   9   44.31    6.16
  12  -4   9   36.46    5.68
 -12  -4  -9   41.56    6.29
  12   4   9   42.75    6.62
 -12   4  -9   35.84    5.84
 -14  -4  -9   -3.35    4.34
  14  -4   9    3.63    4.59
  14   4   9   -5.10    4.04
 -14   4  -9   -0.82    3.74
  19  -5  -9   -1.79    3.87
  19  -5  -9    2.80    3.93
 -19  -5   9   -3.07    4.10
 -19  -5   9    3.16    4.27
  19  -5  -9   -0.96    4.86
  19   5  -9    2.34    5.35
 -19   5   9   -1.74    3.43
  19   5  -9    1.28    4.11
 -17  -5   9    0.66    3.33
  17  -5  -9   -4.58    4.14
  17  -5  -9   -0.47    3.71
 -17  -5   9   -0.48    3.76
  17  -5  -9    2.50    3.64
 -17   5   9    4.50    3.40
  17   5  -9   -0.51    4.77
  17   5  -9    3.02    3.36
  15  -5  -9   28.76    5.69
  15  -5  -9   27.77    5.28
 -15  -5   9   25.82    4.91
  15  -5  -9   19.23    4.35
 -15  -5   9   26.64    4.85
  15   5  -9   23.60    4.58
 -15   5   9   19.97    4.33
  13  -5  -9    8.49    3.23
 -13  -5   9    4.09    3.08
  13  -5  -9   11.16    3.63
  13  -5  -9    6.92    3.94
 -13  -5   9    9.96    3.88
  13   5  -9    8.84    3.42
 -13   5   9   10.07    3.45
 -11  -5   9   19.69    4.33
  11  -5  -9   22.03    4.71
  11  -5  -9   24.93    4.58
  11  -5  -9   20.23    4.02
  11   5  -9   15.44    3.85
 -11   5   9   23.36    4.04
  11   5  -9   20.45    4.21
   9  -5  -9  145.53    8.63
   9  -5  -9  139.94    8.99
  -9  -5   9  150.09    8.89
   9  -5  -9  163.48    9.87
   9   5  -9  148.47    9.07
  -9   5   9  154.31    8.82
   9   5  -9  167.07    9.25
   7  -5  -9   11.29    3.82
   7  -5  -9   15.64    3.53
  -7  -5   9   14.67    3.61
  -7  -5   9   18.26    2.77
   7  -5  -9   14.85    3.22
   7  -5  -9   13.46    2.92
   7   5  -9   14.99    3.58
   7   5  -9   18.62    3.92
  -7   5   9   18.56    3.54
   5  -5  -9    5.42    2.49
  -5  -5   9    7.37    2.37
   5  -5  -9    2.30    2.40
  -5  -5   9    8.39    2.88
   5  -5  -9    3.71    2.31
   5  -5  -9   12.01    3.79
  -5   5   9    6.67    2.67
   5   5  -9    9.76    3.11
   5   5  -9    7.58    3.41
  -3  -5   9   30.92    3.55
   3  -5  -9   22.17    3.51
   3  -5  -9   24.17    3.67
   3  -5  -9   20.27    3.27
  -3  -5   9   23.67    3.67
   3   5  -9   22.51    4.51
   3   5  -9   24.18    3.98
  -3   5   9   20.88    3.23
  -3   5   9   25.51    3.73
   1  -5  -9   34.03    4.30
   1  -5  -9   37.65    5.99
  -1  -5   9   37.59    4.24
  -1  -5   9   36.90    4.24
   1   5  -9   39.84    6.05
  -1   5   9   36.20    3.85
  -1   5   9   32.72    4.32
   1   5  -9   32.85    4.47
   1  -5   9  259.45   12.05
  -1  -5  -9  290.28   12.89
   1  -5   9  283.17   12.66
  -1  -5  -9  254.50   14.25
  -1   5  -9  280.76   14.69
  -1   5  -9  255.73   12.81
   1   5   9  265.23   12.69
   1   5   9  266.60   11.60
   3  -5   9    1.83    2.30
  -3  -5  -9    1.31    2.63
   3  -5   9    6.84    3.00
  -3   5  -9   -3.66    3.75
   3   5   9    3.42    2.63
  -3   5  -9    2.96    2.98
  -5  -5  -9   23.92    4.37
   5  -5   9   21.12    4.09
   5   5   9   27.84    4.48
  -5   5  -9   14.72    3.83
   7  -5   9   23.37    4.33
  -7  -5  -9   29.32    5.30
  -7   5  -9   23.26    4.62
   7   5   9   33.46    5.17
   9  -5   9    6.52    3.81
  -9  -5  -9   15.51    4.73
   9   5   9   11.63    4.13
  -9   5  -9    2.98    3.48
 -11  -5  -9    0.40    4.23
  11  -5   9    0.65    3.68
 -11   5  -9    3.98    3.62
  11   5   9   -0.65    3.99
  13  -5   9    2.69    3.86
 -13  -5  -9   -4.06    4.31
 -13   5  -9    2.63    4.00
  13   5   9   -0.16    4.38
 -18  -6   9   13.08    5.37
  18  -6  -9   11.80    4.57
  18  -6  -9    6.59    6.00
 -18  -6   9    6.68    4.95
  18  -6  -9    0.58    4.19
 -18   6   9    2.70    3.77
  18   6  -9    6.06    4.55
 -16  -6   9    5.78    4.28
 -16  -6   9    1.01    3.50
  16  -6  -9    2.85    3.92
  16  -6  -9   -1.90    3.71
  16  -6  -9    3.72    4.99
 -16   6   9    6.39    3.71
  16   6  -9    2.60    4.33
 -14  -6   9   -0.03    3.79
  14  -6  -9   -1.23    4.26
  14  -6  -9    1.47    3.45
  14  -6  -9   -4.29    2.71
 -14   6   9    0.18    2.83
  14   6  -9    0.10    3.26
  14   6  -9    3.29    3.67
  12  -6  -9  112.19    9.58
 -12  -6   9  112.27    9.34
  12  -6  -9  134.05   10.94
  12  -6  -9  117.95    8.43
 -12   6   9  114.54    8.29
  12   6  -9  120.71    8.86
  12   6  -9  100.40    8.96
  10  -6  -9   25.22    4.53
  10  -6  -9   29.01    5.71
 -10  -6   9   22.06    4.45
  10  -6  -9   26.18    4.90
  10   6  -9   34.54    5.54
  10   6  -9   24.61    4.83
 -10   6   9   27.21    4.45
  -8  -6   9    4.49    3.04
   8  -6  -9    4.39    4.20
   8  -6  -9   -1.58    2.46
   8  -6  -9    4.55    3.20
  -8   6   9    3.09    2.67
   8   6  -9    6.83    3.27
   8   6  -9   -1.45    3.44
   6  -6  -9    7.58    3.22
  -6  -6   9    2.81    2.86
  -6  -6   9    4.13    2.39
   6  -6  -9   -1.62    2.55
   6  -6  -9    2.87    4.00
   6  -6  -9    2.52    2.72
   6   6  -9    1.72    2.98
   6   6  -9    4.19    3.67
  -6   6   9   -0.59    2.43
   4  -6  -9    7.69    2.94
   4  -6  -9   11.19    3.28
  -4  -6   9    7.34    3.13
   4  -6  -9    4.18    4.37
   4  -6  -9   11.47    3.23
  -4  -6   9   10.14    2.92
   4   6  -9    3.94    3.69
  -4   6   9    6.96    2.96
   4   6  -9   10.10    3.33
   2  -6  -9   18.75    3.65
  -2  -6   9   23.91    3.99
   2  -6  -9   35.71    6.24
   2  -6  -9   32.88    4.09
  -2  -6   9   28.46    3.98
   2  -6  -9   34.82    4.42
  -2   6   9   27.63    4.22
   2   6  -9   29.19    4.47
   2   6  -9   37.89    6.08
   0  -6  -9   28.52    4.27
   0  -6   9   31.65    4.34
   0  -6  -9   38.95    4.20
   0  -6  -9   34.34    4.56
   0  -6  -9   33.78    6.38
   0  -6   9   26.60    4.03
   0   6  -9   36.38    6.50
   0   6   9   20.73    3.84
   0   6  -9   28.63    4.61
   2  -6   9   40.78    4.52
  -2  -6  -9   34.23    4.82
   2  -6   9   37.12    4.80
  -2   6  -9   39.93    7.04
   2   6   9   31.86    4.65
  -2   6  -9   31.93    4.85
  -4  -6  -9   -4.15    2.89
   4  -6   9    3.02    3.21
  -4   6  -9   -2.25    2.86
   4   6   9   -0.26    2.55
   6  -6   9    1.26    3.34
  -6  -6  -9   -1.23    3.45
  -6   6  -9    7.18    3.42
   6   6   9    6.78    3.68
   8  -6   9    5.55    3.73
  -8  -6  -9    0.56    3.96
  -8   6  -9   -0.77    3.68
   8   6   9    8.02    3.88
  10  -6   9    8.50    4.13
 -10  -6  -9    3.32    4.10
  10   6   9   -0.49    3.87
 -10   6  -9    7.06    4.14
  12  -6   9   64.47    7.83
 -12  -6  -9   59.37    7.84
  12   6   9   51.61    7.37
 -12   6  -9   83.54    8.39
  17  -7  -9   -7.68    5.30
  17  -7  -9    4.58    4.16
  17  -7  -9    4.63    4.76
 -17  -7   9    1.39    4.66
  17   7  -9    2.07    5.85
 -17   7   9    6.81    4.40
  17   7  -9    5.06    4.98
 -15  -7   9   17.74    5.70
  15  -7  -9   25.93    5.85
  15  -7  -9   15.18    4.78
  15  -7  -9   15.80    6.76
  15   7  -9    8.30    5.58
 -15   7   9   10.28    4.39
  15   7  -9   18.36    5.29
  13  -7  -9    5.09    4.46
  13  -7  -9    3.68    3.92
  13  -7  -9    3.67    5.38
 -13  -7   9   -1.68    4.16
  13   7  -9   -0.54    4.49
 -13   7   9    2.12    3.72
  13   7  -9    1.22    4.26
  11  -7  -9   -2.30    3.41
 -11  -7   9    2.65    3.81
  11  -7  -9    3.40    5.01
  11  -7  -9    1.08    4.08
 -11   7   9    1.16    3.19
  11   7  -9    3.05    4.89
  11   7  -9    1.58    3.60
  -9  -7   9  191.61   11.34
   9  -7  -9  162.50   11.14
   9  -7  -9  195.60   13.28
   9  -7  -9  187.78   10.72
   9   7  -9  179.91   12.41
   9   7  -9  179.33   10.98
  -9   7   9  186.37   10.80
   7  -7  -9    7.95    3.33
   7  -7  -9    6.46    3.90
  -7  -7   9    4.36    3.12
   7  -7  -9   10.77    5.68
  -7   7   9    5.98    3.40
   7   7  -9    1.24    3.65
   7   7  -9   -6.28    4.66
   5  -7  -9    1.34    3.39
   5  -7  -9    5.27    2.97
  -5  -7   9    5.93    2.89
   5  -7  -9    4.17    2.95
   5  -7  -9   -1.19    4.24
  -5  -7   9   -0.21    2.73
   5   7  -9    0.21    3.51
   5   7  -9    5.13    4.87
  -5   7   9   -2.50    2.70
   3  -7  -9   38.98    5.29
  -3  -7   9   38.73    4.79
   3  -7  -9   41.09    5.12
   3  -7  -9   36.86    4.60
  -3  -7   9   32.92    4.76
   3  -7  -9   39.74    7.53
   3   7  -9   33.04    5.39
   3   7  -9   18.28    5.78
  -3   7   9   30.61    4.71
   1  -7  -9   38.11    7.99
   1  -7  -9   38.20    5.09
  -1  -7   9   35.00    4.84
   1  -7  -9   49.56    5.14
  -1  -7   9   33.37    4.68
   1  -7  -9   34.04    4.97
   1   7  -9   28.18    5.31
   1   7  -9   32.30    6.57
  -1   7   9   32.89    4.86
  -1  -7  -9   10.39    3.64
   1  -7   9    4.66    3.25
   1  -7   9    0.97    3.15
  -1   7  -9   14.84    4.19
   1   7   9    8.55    3.38
  -1   7  -9   19.89    5.77
  -3  -7  -9   -7.15    2.78
   3  -7   9    0.19    3.23
  -3   7  -9   -4.12    3.16
   3   7   9    0.14    2.93
  -5  -7  -9    4.38    3.65
   5  -7   9    8.72    4.14
  -5   7  -9    7.15    4.23
   5   7   9    4.44    3.18
   7  -7   9    1.16    3.76
  -7  -7  -9    3.96    3.83
  -7   7  -9   -2.24    3.23
   7   7   9    5.20    3.52
  -9  -7  -9    3.17    4.31
   9  -7   9    2.44    3.63
  -9   7  -9    2.24    3.87
   9   7   9    8.87    4.10
  11  -7   9    0.23    3.56
 -11  -7  -9   -5.89    4.38
  11   7   9    0.87    3.68
 -11   7  -9    3.39    4.21
  16  -8  -9   -2.53    6.39
 -16   8   9   -1.77    3.89
  16   8  -9    3.46    5.93
  16   8  -9    1.05    6.44
  14  -8  -9    9.28    4.92
  14  -8  -9   15.65    6.09
 -14  -8   9   11.30    5.71
  14  -8  -9   16.55    7.33
  14   8  -9   11.59    6.68
 -14   8   9   15.95    4.67
  14   8  -9    6.64    5.38
  12  -8  -9    5.49    5.93
 -12  -8   9    6.92    4.63
  12  -8  -9    4.34    4.92
  12  -8  -9    5.88    4.52
  12   8  -9   -3.64    4.23
 -12   8   9    7.36    3.85
  12   8  -9    2.05    5.86
  10  -8  -9   16.02    4.95
  10  -8  -9   10.53    5.30
 -10  -8   9   19.07    4.83
  10  -8  -9    6.91    5.90
  10   8  -9   15.64    5.04
  10   8  -9   14.70    6.43
 -10   8   9    5.41    3.70
   8  -8  -9    9.51    4.01
   8  -8  -9    6.23    4.36
   8  -8  -9   20.55    6.84
  -8  -8   9    7.66    3.91
   8   8  -9   18.53    5.29
   8   8  -9    4.58    5.58
  -8   8   9   16.33    4.34
   6  -8  -9    4.56    5.36
   6  -8  -9   -2.79    3.84
  -6  -8   9    0.64    3.13
   6  -8  -9    0.76    3.56
  -6   8   9    0.07    3.01
   6   8  -9    1.53    5.52
   6   8  -9   -0.80    3.93
  -4  -8   9    0.41    3.18
   4  -8  -9   11.74    7.29
   4  -8  -9    1.27    4.01
   4  -8  -9    3.38    3.46
   4  -8  -9   14.92    4.16
  -4  -8   9    6.96    3.42
   4   8  -9    1.02    3.92
  -4   8   9    8.59    3.48
   4   8  -9    4.44    5.65
  -2  -8   9    4.57    3.37
  -2  -8   9   10.82    3.81
   2  -8  -9    4.79    4.27
   2  -8  -9    5.73    3.78
   2  -8  -9    9.22    3.81
   2   8  -9    9.39    4.51
  -2   8   9    6.64    3.47
   2   8  -9    5.68    5.70
   0  -8  -9   43.26    5.90
   0  -8   9   45.27    5.68
   0  -8   9   49.65    5.99
   0   8   9   36.05    5.68
   0   8  -9   54.17    6.71
   0   8  -9   43.61    8.75
  -2  -8  -9    0.60    3.71
   2  -8   9    0.30    3.59
  -2   8  -9    3.40    4.25
   2   8   9    1.16    3.39
   4  -8   9    0.75    3.59
  -4  -8  -9    5.51    4.00
   4   8   9    9.44    3.71
  -4   8  -9    5.30    4.43
  -6  -8  -9   -2.87    3.52
   6  -8   9    6.62    4.79
  -6   8  -9    7.55    4.65
   6   8   9    6.94    3.78
  -8  -8  -9    6.86    5.28
   8  -8   9    3.05    4.23
   8   8   9    0.12    3.64
  -8   8  -9    9.44    5.57
  13  -9  -9   17.88    5.77
  13  -9  -9   16.50    9.41
 -13  -9   9   18.71    6.47
  13  -9  -9   18.52    6.64
 -13   9   9   26.68    5.81
  13   9  -9   20.37    8.09
  13   9  -9   14.57    6.23
  11  -9  -9   -1.54    5.06
  11  -9  -9    8.90    7.47
  11  -9  -9   -2.57    4.11
 -11  -9   9   -0.95    4.01
 -11   9   9    2.74    3.93
  11   9  -9   -3.66    4.67
  11   9  -9   -0.99    6.72
   9  -9  -9   -4.03    4.20
   9  -9  -9    1.89    5.03
  -9  -9   9    8.18    4.64
   9  -9  -9    4.06    7.00
  -9   9   9   -3.54    3.32
   9   9  -9    2.02    4.70
   9   9  -9   -7.94    5.87
   7  -9  -9   11.05   12.86
   7  -9  -9    5.07    4.82
   7  -9  -9   12.09    4.80
  -7  -9   9   12.55    4.38
  -7   9   9    6.04    4.02
   7   9  -9    4.31    6.88
   7   9  -9   11.82    5.42
  -5  -9   9   -0.34    3.18
   5  -9  -9   -0.81    3.49
   5  -9  -9    0.45    4.48
   5   9  -9    2.31    4.71
   5   9  -9   -6.95    5.21
  -5   9   9    0.01    3.40
   3  -9  -9   65.40    7.40
  -3  -9   9   59.21    7.01
   3   9  -9   63.09    9.66
  -3   9   9   65.37    7.21
   3   9  -9   74.15    8.15
  -1  -9   9   13.49    4.50
  -1  -9   9   13.93    4.24
   1  -9  -9   22.73    4.99
   1   9  -9   19.93    5.56
  -1   9   9   13.77    4.37
  -1  -9  -9    4.63    3.87
   1  -9   9    7.02    4.14
   1   9   9   12.96    4.53
  -1   9  -9   19.15    5.78
   3  -9   9    9.90    4.60
  -3  -9  -9   12.06    4.66
  -3   9  -9    4.54    5.30
   3   9   9    9.18    4.52
   5  -9   9    5.42    4.79
  -5  -9  -9   -2.56    3.77
   5   9   9    4.49    3.96
  -5   9  -9    1.82    4.90
   7  -9   9    3.21    5.28
  -7  -9  -9   -2.38    3.51
  -7   9  -9   -1.25    5.14
   7   9   9    1.90    4.15
   8 -10  -9   -6.09    4.13
  -8 -10   9   -1.28    4.07
   8 -10  -9    2.35    5.26
  -8  10   9   -0.42    3.78
   8  10  -9    0.65    5.24
   8  10  -9   -6.01    6.78
  -6 -10   9    8.60    4.65
   6 -10  -9   13.93    6.05
   6 -10  -9    8.73    5.25
   6  10  -9    0.84    7.53
  -6  10   9   11.53    4.84
   6  10  -9    2.80    5.35
  -4 -10   9    5.29    4.53
   4  10  -9    9.06   10.00
   4  10  -9    2.50    5.22
  -4  10   9    8.03    4.38
  -2 -10   9   -0.13    4.60
   2 -10  -9   18.17    5.50
   2  10  -9    1.78    5.02
  -2  10   9   -1.68    3.52
   0 -10   9    5.60    4.50
   0 -10  -9    7.37    4.62
   0  10  -9    9.46    6.14
   0  10   9    7.42    4.67
   2 -10   9   -2.00    4.18
  -2 -10  -9    1.83    4.12
  -2  10  -9   -5.85    5.23
   2  10   9    4.73    4.35
  22   0 -10   15.64    5.38
  22   0 -10   18.59    4.84
 -22   0  10   15.75    5.13
  20   0 -10    0.76    2.81
 -20   0  10    2.74    3.68
  20   0 -10    2.27    3.52
 -18   0  10  217.90   12.36
  18   0 -10  227.27   10.58
 -18   0  10  236.20   12.27
  16   0 -10   93.78    6.78
 -16   0  10  100.17    7.97
 -16   0  10   94.43    6.94
  16   0 -10   94.48    7.15
  16   0 -10   84.17    4.98
 -14   0  10  895.10   33.92
  14   0 -10  891.12   34.22
 -14   0  10  900.96   33.42
  14   0 -10  896.74   33.70
 -14   0  10  869.21   34.25
 -12   0  10   31.30    3.93
 -12   0  10   32.71    3.63
 -12   0  10   30.78    3.48
 -12   0  10   31.31    3.60
 -10   0  10  106.56    6.03
 -10   0  10   99.60    5.93
 -10   0  10  112.18    6.03
 -10   0  10  108.89    5.81
  -8   0  10  931.25   34.68
  -8   0  10  945.07   34.65
  -8   0  10  939.87   34.48
  -8   0  10  935.32   34.17
  -6   0  10  205.74    8.58
   6   0 -10  183.89    8.11
   6   0 -10  197.58    8.16
  -6   0  10  204.61    9.09
   6   0 -10  194.98    8.25
  -6   0  10  206.96    9.06
   4   0 -10  383.10   15.51
  -4   0  10  380.89   15.59
   4   0 -10  405.77   14.87
  -4   0  10  390.86   15.06
   4   0 -10  395.80   15.80
   2   0 -10   32.12    2.66
  -2   0  10   30.59    2.80
   2   0 -10   24.31    3.35
   2   0 -10   28.71    3.24
  -2   0  10   20.70    2.73
   0   0  10  911.56   34.83
   0   0  10  952.87   34.37
   0   0 -10  921.99   35.79
   0   0 -10  996.41   34.30
   0   0 -10  942.25   35.12
   2   0  10   19.93    2.78
  -2   0 -10   22.64    2.71
  -2   0 -10   16.64    3.80
   2   0  10   23.80    2.74
  -2   0 -10   21.59    3.00
  -4   0 -10   30.53    3.45
   4   0  10   32.99    3.56
  -4   0 -10   36.93    3.94
  -4   0 -10   42.49    5.99
   4   0  10   33.62    3.50
  -6   0 -10  140.97    7.81
   6   0  10  145.81    7.84
   6   0  10  145.70    7.96
  -6   0 -10  163.39   10.43
  -6   0 -10  149.06    8.06
  -8   0 -10   69.03    5.80
   8   0  10   79.93    6.38
  -8   0 -10   67.00    5.90
   8   0  10   59.94    5.44
  10   0  10   33.57    4.80
  10   0  10   18.32    3.94
 -10   0 -10   33.79    5.95
 -10   0 -10   28.54    4.27
 -12   0 -10    3.85    3.17
  12   0  10    5.39    3.86
 -14   0 -10   15.77    4.96
  14   0  10    1.59    4.05
 -21  -1  10    9.51    4.71
  21  -1 -10    9.81    3.76
 -21   1  10   10.42    4.52
  21   1 -10   10.44    3.65
  21   1 -10    4.91    4.40
 -21   1  10   11.98    5.30
 -19  -1  10   16.43    4.26
  19  -1 -10   11.67    3.35
 -19   1  10   11.58    3.85
  19   1 -10   13.77    3.33
  19   1 -10   12.07    4.17
 -19   1  10   10.93    4.35
  17  -1 -10   35.84    4.69
  17  -1 -10   40.61    4.21
  17  -1 -10   47.80    5.58
 -17  -1  10   37.29    5.21
 -17   1  10   40.49    5.51
 -17   1  10   43.57    5.15
  17   1 -10   41.85    3.85
  17   1 -10   53.12    5.73
  15  -1 -10   28.71    4.37
  15  -1 -10   23.72    3.91
 -15  -1  10   37.05    4.63
 -15  -1  10   32.14    4.27
 -15  -1  10   29.69    4.31
  15  -1 -10   26.53    3.02
 -15   1  10   35.52    4.70
  15   1 -10   28.46    4.28
  15   1 -10   35.07    4.35
  15   1 -10   29.22    2.38
 -15   1  10   34.99    4.25
  13  -1 -10   78.38    4.06
 -13  -1  10   74.56    5.71
  13  -1 -10   82.65    6.11
  13  -1 -10   66.78    6.04
  13  -1 -10   73.24    4.08
 -13  -1  10   68.43    5.78
 -13  -1  10   92.21    5.47
 -13  -1  10   79.68    5.86
 -13   1  10   80.84    6.47
 -13   1  10   79.24    5.34
 -13   1  10   87.39    5.66
 -11  -1  10   33.22    3.35
  11  -1 -10   25.27    1.92
  11  -1 -10   32.54    3.29
 -11  -1  10   30.28    3.60
 -11  -1  10   31.84    3.48
 -11  -1  10   31.67    3.58
  11  -1 -10   23.95    1.89
 -11   1  10   37.58    3.86
 -11   1  10   31.40    3.75
 -11   1  10   31.74    3.32
  -9  -1  10  256.22   11.00
  -9  -1  10  269.56   10.91
   9  -1 -10  248.88    9.77
  -9  -1  10  250.37   11.25
   9  -1 -10  248.62   10.86
  -9  -1  10  258.71   10.95
   9  -1 -10  247.12    9.68
  -9   1  10  265.36   10.52
  -9   1  10  248.13   11.15
  -9   1  10  259.77   11.17
  -7  -1  10   67.36    3.86
   7  -1 -10   56.60    4.18
   7  -1 -10   57.05    3.73
   7  -1 -10   53.20    3.51
  -7  -1  10   66.10    4.67
  -7  -1  10   66.29    4.39
   7   1 -10   55.03    3.10
   7   1 -10   55.71    3.94
  -7   1  10   61.73    4.27
  -7   1  10   72.47    3.62
   7   1 -10   57.96    3.06
  -7   1  10   66.01    4.31
   5  -1 -10  277.76   11.73
  -5  -1  10  268.51   11.88
   5  -1 -10  287.48   10.51
  -5  -1  10  277.74   10.81
  -5  -1  10  273.45   11.58
   5  -1 -10  283.04   11.59
  -5   1  10  267.90   11.68
   5   1 -10  264.00   11.26
   5   1 -10  273.30   11.23
  -5   1  10  281.68   11.48
   5   1 -10  275.95   11.34
  -3  -1  10   89.62    5.39
  -3  -1  10   92.61    5.59
  -3  -1  10   99.69    4.62
   3  -1 -10   90.73    5.56
   3  -1 -10  100.68    6.05
   3   1 -10   92.59    5.75
   3   1 -10   91.97    5.08
  -3   1  10   98.83    5.56
  -3   1  10  104.75    5.40
   1  -1 -10  285.59   10.29
   1  -1 -10  265.44   12.21
  -1  -1  10  250.57   11.37
   1  -1 -10  271.68   11.64
  -1  -1  10  266.74   10.42
  -1   1  10  255.63   11.34
   1   1 -10  257.89   11.62
   1   1 -10  272.09   12.23
   1   1 -10  275.68   11.16
  -1   1  10  270.23   11.18
  -1  -1 -10    6.01    3.13
  -1  -1 -10    4.98    1.55
   1  -1  10   11.90    1.84
   1  -1  10    4.18    1.80
  -1  -1 -10    8.90    2.33
   1   1  10    5.17    1.88
  -1   1 -10    5.09    2.58
  -1   1 -10    6.23    2.00
   1   1  10    5.93    1.91
  -1   1 -10    3.60    1.99
  -3  -1 -10  120.12    6.85
  -3  -1 -10  119.13    8.21
  -3  -1 -10  121.10    5.96
   3  -1  10  119.27    5.91
   3  -1  10  117.41    6.62
   3   1  10  107.86    6.25
   3   1  10  123.83    6.47
  -3   1 -10  114.12    6.65
  -3   1 -10  136.78    8.48
  -3   1 -10  115.76    6.45
  -5  -1 -10   70.06    5.91
   5  -1  10   65.33    5.31
  -5  -1 -10   67.70    4.84
  -5  -1 -10   81.14    7.78
   5  -1  10   72.93    4.89
   5   1  10   69.22    5.28
  -5   1 -10   72.08    7.68
  -5   1 -10   73.00    5.26
  -5   1 -10   67.93    5.51
   5   1  10   63.90    5.10
   7  -1  10   96.69    6.65
  -7  -1 -10   86.36    6.22
  -7  -1 -10   99.80    6.86
   7  -1  10  105.46    6.56
   7   1  10   95.25    6.71
   7   1  10  101.37    6.28
  -7   1 -10  111.36    6.63
  -7   1 -10  100.82    6.68
   9  -1  10    7.20    2.97
   9  -1  10    8.35    3.13
  -9  -1 -10    6.99    3.37
  -9  -1 -10    4.89    2.92
  -9   1 -10    7.48    3.03
   9   1  10    4.86    3.12
  11  -1  10   14.33    3.58
 -11  -1 -10    1.90    4.01
  11  -1  10   12.15    3.88
 -11  -1 -10    9.84    3.58
 -11   1 -10    6.46    3.46
  11   1  10   11.86    3.93
 -13  -1 -10   -0.30    3.16
  13  -1  10   -0.34    3.86
  13   1  10    0.77    3.55
 -13   1 -10   -2.10    3.24
  15  -1  10   -3.60    4.18
 -15  -1 -10    0.76    4.06
 -15   1 -10   13.47    4.55
  15   1  10   -8.30    4.09
 -22  -2  10    4.42    4.40
  22  -2 -10   -0.72    3.79
  22   2 -10   10.83    4.15
  22   2 -10   10.46    4.35
 -22   2  10    3.88    4.79
 -22   2  10   -0.90    3.83
  20  -2 -10    1.72    3.42
 -20  -2  10    8.18    4.04
  20   2 -10    8.72    4.20
 -20   2  10   14.77    4.35
  20   2 -10   10.44    3.46
 -20   2  10    4.39    4.62
  18  -2 -10   25.90    4.92
  18  -2 -10   34.63    4.92
 -18  -2  10   26.46    4.85
  18  -2 -10   40.21    4.81
  18   2 -10   30.14    3.94
 -18   2  10   22.56    4.38
  18   2 -10   28.33    4.78
 -18   2  10   31.15    5.51
  16  -2 -10   76.81    7.27
 -16  -2  10   91.80    7.17
 -16  -2  10   90.92    7.53
  16  -2 -10   74.48    6.11
  16  -2 -10   72.06    6.56
 -16   2  10   84.11    7.62
 -16   2  10   87.25    6.43
  16   2 -10   80.78    5.08
  16   2 -10   99.38    7.15
 -14  -2  10  334.69   14.95
 -14  -2  10  343.50   15.19
  14  -2 -10  314.02   15.49
  14  -2 -10  337.66   15.14
  14  -2 -10  342.17   14.10
 -14   2  10  347.44   14.55
  14   2 -10  336.54   12.84
  14   2 -10  344.96   14.94
 -14   2  10  322.68   15.39
  12  -2 -10   75.17    5.07
  12  -2 -10   79.96    4.93
 -12  -2  10   76.05    5.51
 -12  -2  10   74.73    4.95
  12  -2 -10   70.19    6.31
 -12  -2  10   80.69    5.92
  12  -2 -10   81.37    6.40
 -12  -2  10   65.92    5.85
  12   2 -10   81.76    5.31
 -12   2  10   68.44    4.85
 -12   2  10   89.15    5.99
  10  -2 -10  165.12    8.02
 -10  -2  10  173.55    8.23
  10  -2 -10  156.37    7.88
 -10  -2  10  181.67    9.12
 -10  -2  10  185.69    8.30
 -10  -2  10  176.05    8.76
 -10   2  10  182.71    8.95
 -10   2  10  190.82    7.94
 -10   2  10  172.47    8.97
  -8  -2  10   71.72    4.45
   8  -2 -10   61.75    4.31
   8  -2 -10   64.80    4.97
  -8  -2  10   68.09    5.04
   8  -2 -10   66.38    4.42
  -8  -2  10   69.93    4.17
   8   2 -10   57.52    3.52
   8   2 -10   71.52    4.90
   8   2 -10   68.78    3.58
  -8   2  10   63.33    4.76
  -8   2  10   73.08    3.80
  -8   2  10   63.61    4.71
  -6  -2  10    6.16    1.95
  -6  -2  10    9.50    1.58
   6  -2 -10    5.85    2.12
  -6  -2  10    5.16    2.29
   6  -2 -10    7.13    2.07
   6   2 -10    4.54    1.85
  -6   2  10    5.58    2.19
  -6   2  10    7.24    2.06
   6   2 -10    8.84    2.03
   6   2 -10    5.22    1.95
   4  -2 -10  170.41    8.00
   4  -2 -10  152.26    8.26
  -4  -2  10  172.56    8.22
  -4  -2  10  172.13    7.90
  -4   2  10  162.63    7.89
   4   2 -10  162.37    8.12
   4   2 -10  167.60    7.87
  -4   2  10  165.59    7.88
  -2  -2  10  216.78    9.96
   2  -2 -10  214.99    9.89
  -2  -2  10  217.87    9.80
   2  -2 -10  213.09   10.59
  -2   2  10  210.31    9.68
  -2   2  10  210.39    9.56
   2   2 -10  246.21   10.70
   2   2 -10  216.31    9.75
   0  -2 -10   -3.55    2.08
   0  -2 -10    0.64    1.73
   0  -2  10   -0.04    1.50
   0  -2  10    1.24    1.68
   0  -2 -10   -0.20    1.57
   0   2 -10   -1.41    1.71
   0   2  10   -0.82    1.57
   0   2  10    0.76    1.73
   0   2 -10    0.60    1.84
   0   2 -10   -0.02    2.30
  -2  -2 -10   11.20    2.80
  -2  -2 -10   20.35    2.28
   2  -2  10   16.86    2.07
   2  -2  10    9.82    2.62
  -2  -2 -10   15.55    4.06
  -2   2 -10   16.53    3.74
  -2   2 -10   12.95    2.70
  -2   2 -10   16.89    2.77
   2   2  10   12.50    2.45
   2   2  10   13.16    2.70
  -4  -2 -10   -0.07    2.29
  -4  -2 -10    1.75    1.84
   4  -2  10    2.00    1.73
   4  -2  10    0.13    2.18
  -4  -2 -10   -4.02    3.20
  -4   2 -10    0.76    2.04
  -4   2 -10   -3.59    2.12
   4   2  10   -0.51    1.64
   4   2  10   -1.12    1.99
  -4   2 -10    0.93    3.35
   6  -2  10    1.27    2.31
   6  -2  10    1.25    2.20
  -6  -2 -10   -0.26    2.57
  -6  -2 -10   -1.21    1.91
  -6   2 -10    2.14    2.64
   6   2  10    1.64    2.06
  -6   2 -10    1.62    2.50
  -6   2 -10    7.73    8.05
   6   2  10   -2.81    2.18
   8  -2  10    7.03    2.81
   8  -2  10    3.02    2.76
  -8  -2 -10    1.24    3.07
  -8  -2 -10    1.72    2.53
   8   2  10    0.70    2.73
  -8   2 -10    1.05    2.66
 -10  -2 -10    4.78    3.43
  10  -2  10    2.49    3.37
  10  -2  10    1.09    2.76
 -10  -2 -10    2.26    2.73
 -10   2 -10    2.37    3.02
  10   2  10    3.36    3.54
 -12  -2 -10   -1.25    4.47
  12  -2  10    9.79    3.65
 -12  -2 -10    1.83    3.36
 -12   2 -10    7.09    3.67
  12   2  10   -2.11    3.66
 -14  -2 -10   21.91    5.46
 -14   2 -10    6.91    4.14
  14   2  10   16.35    4.98
  21  -3 -10   -7.68    4.60
  21  -3 -10   -8.18    4.90
  21  -3 -10    1.82    3.99
 -21  -3  10    2.45    4.49
  21   3 -10   -1.54    3.57
 -21   3  10   -1.30    4.01
 -21   3  10    0.24    4.18
  21   3 -10   -3.13    3.95
  19  -3 -10    3.14    3.95
  19  -3 -10    4.47    3.51
 -19  -3  10   -4.52    3.18
  19  -3 -10   -2.80    3.26
 -19   3  10    2.44    3.53
 -19   3  10    8.92    5.03
  19   3 -10    0.60    3.58
  19   3 -10   -1.88    2.90
 -17  -3  10    0.52    3.32
 -17  -3  10    3.61    3.49
  17  -3 -10    2.63    3.04
  17  -3 -10   -3.39    2.70
  17  -3 -10   -2.30    2.89
 -17   3  10   -0.50    3.02
  17   3 -10    3.13    3.29
  17   3 -10    0.57    2.49
 -17   3  10    3.84    3.28
  15  -3 -10   -0.96    2.63
  15  -3 -10    2.75    2.69
  15  -3 -10    6.41    3.06
 -15  -3  10    3.35    3.01
 -15  -3  10    3.97    3.23
  15   3 -10    5.83    3.06
 -15   3  10    4.02    2.91
 -15   3  10   -2.67    2.59
  15   3 -10    2.42    2.27
  13  -3 -10   -0.01    2.48
 -13  -3  10    4.59    2.77
  13  -3 -10    0.23    2.52
  13  -3 -10    4.53    2.54
 -13  -3  10    6.31    2.97
 -13   3  10    0.91    2.38
 -13   3  10    2.91    2.82
  13   3 -10    3.68    1.98
  13   3 -10    5.65    2.54
  11  -3 -10    7.09    2.65
  11  -3 -10   12.27    3.01
 -11  -3  10   12.52    3.02
 -11  -3  10    6.66    2.88
  11  -3 -10    8.48    2.65
 -11  -3  10    9.52    2.26
  11  -3 -10    6.63    2.81
  11   3 -10    7.34    1.99
  11   3 -10    7.87    2.30
 -11   3  10    5.78    2.28
 -11   3  10    8.04    2.84
   9  -3 -10   59.75    5.08
  -9  -3  10   52.99    5.05
  -9  -3  10   62.56    4.27
   9  -3 -10   56.93    4.41
   9   3 -10   50.21    4.96
  -9   3  10   55.05    5.09
   9   3 -10   53.46    4.12
  -9   3  10   54.39    5.06
   9   3 -10   51.34    3.95
   7  -3 -10  204.87    9.46
  -7  -3  10  207.16   10.11
  -7  -3  10  205.70    9.29
   7  -3 -10  229.83   10.38
  -7   3  10  208.29    9.92
  -7   3  10  200.74    9.87
   7   3 -10  208.95    9.91
   7   3 -10  204.21    9.63
  -5  -3  10    7.92    2.00
   5  -3 -10    4.66    2.56
  -5  -3  10    6.25    2.41
   5  -3 -10   11.52    2.49
   5   3 -10    8.45    2.79
  -5   3  10   12.71    2.59
   5   3 -10   10.93    2.52
  -5   3  10    7.94    2.51
   3  -3 -10   98.93    5.97
   3  -3 -10  100.00    6.76
  -3  -3  10   94.61    6.00
  -3  -3  10   95.44    5.86
   3   3 -10  107.68    6.16
   3   3 -10  100.59    6.71
  -3   3  10  110.70    6.17
  -3   3  10  104.06    5.82
   1  -3 -10   78.69    6.57
  -1  -3  10   76.34    5.12
  -1  -3  10   68.04    4.98
   1  -3 -10   75.96    5.46
   1   3 -10   76.48    6.75
  -1   3  10   77.03    4.86
   1   3 -10   72.51    5.24
  -1   3  10   68.91    5.00
  -1  -3 -10  215.63   11.69
  -1  -3 -10  208.06   10.34
   1  -3  10  214.74   10.05
   1  -3  10  212.27   10.28
   1   3  10  220.16   10.24
   1   3  10  215.22    9.67
  -1   3 -10  221.89   10.44
  -1   3 -10  225.54   11.78
   3  -3  10   13.63    3.22
  -3  -3 -10   21.93    4.95
  -3  -3 -10   20.26    3.49
  -3   3 -10   20.68    3.14
   3   3  10   17.81    2.77
   3   3  10   19.37    3.40
  -3   3 -10   14.05    4.40
  -3   3 -10   15.67    3.36
   5  -3  10   86.20    6.83
  -5  -3 -10   77.95    6.69
   5   3  10   75.31    6.39
   5   3  10   70.95    5.28
  -5   3 -10   70.94    6.25
  -5   3 -10   92.89    8.69
  -5   3 -10   88.40    5.82
   7  -3  10   38.36    4.92
  -7  -3 -10   44.45    5.42
   7   3  10   44.93    5.39
  -7   3 -10   42.97    5.10
   9  -3  10    6.89    3.14
  -9  -3 -10    5.93    3.70
  -9   3 -10    5.97    3.27
   9   3  10    4.05    3.58
 -11  -3 -10   14.57    4.66
  11  -3  10   18.01    4.42
  11   3  10    5.79    4.36
 -11   3 -10   14.42    4.07
  13  -3  10    7.98    4.02
 -13  -3 -10   15.71    5.53
  13   3  10   13.13    5.22
 -13   3 -10   11.78    4.56
 -15   3 -10   17.11    5.18
  15   3  10   14.81    6.11
 -20  -4  10   -0.27    3.80
  20  -4 -10   -6.30    4.02
  20  -4 -10   -1.29    3.72
  20  -4 -10   -0.17    4.40
  20   4 -10    3.82    3.73
  20   4 -10    2.99    4.76
 -20   4  10    6.01    4.57
  18  -4 -10   -0.52    3.76
  18  -4 -10   -2.00    3.42
  18  -4 -10   -1.08    3.15
 -18  -4  10   -3.51    3.65
 -18  -4  10    8.45    4.14
  18   4 -10   -2.46    2.98
 -18   4  10    0.03    3.49
  18   4 -10    1.07    3.67
 -16  -4  10    5.94    3.57
  16  -4 -10    2.45    3.40
  16  -4 -10    0.52    3.15
  16  -4 -10    1.79    3.31
 -16  -4  10    3.17    3.65
  16   4 -10    4.59    3.02
  16   4 -10    6.70    3.45
 -16   4  10    3.32    3.38
  14  -4 -10    3.22    3.05
  14  -4 -10    2.03    2.86
  14  -4 -10    1.60    3.14
 -14  -4  10    3.78    3.34
 -14  -4  10    2.32    2.98
  14   4 -10   -1.41    2.35
 -14   4  10    4.87    3.01
  14   4 -10    5.11    3.29
  12  -4 -10   43.63    5.31
 -12  -4  10   47.56    5.37
  12  -4 -10   58.43    6.09
 -12  -4  10   52.93    5.82
  12  -4 -10   41.30    5.05
  12   4 -10   43.95    4.54
 -12   4  10   52.24    5.61
 -10  -4  10  108.63    6.15
  10  -4 -10  103.58    7.39
  10  -4 -10  104.30    7.73
 -10  -4  10  109.87    7.29
  10  -4 -10  115.06    7.53
  10  -4 -10  112.58    7.21
  10   4 -10   92.40    6.96
  10   4 -10   99.04    6.62
 -10   4  10  103.68    6.98
   8  -4 -10   15.55    3.14
   8  -4 -10   12.19    2.58
  -8  -4  10   16.95    2.58
   8  -4 -10   15.51    3.58
  -8  -4  10   11.47    3.05
   8  -4 -10   11.22    3.10
   8   4 -10   11.61    3.08
  -8   4  10   11.27    2.91
   8   4 -10   11.81    3.03
   6  -4 -10   -1.15    1.95
  -6  -4  10    0.31    2.12
   6  -4 -10   -1.49    2.41
  -6  -4  10    1.57    1.70
  -6   4  10    0.16    2.07
   6   4 -10    1.31    2.43
   6   4 -10    1.93    2.35
  -6   4  10    3.46    2.27
   4  -4 -10   31.72    3.85
   4  -4 -10   26.42    4.23
  -4  -4  10   37.08    3.83
  -4  -4  10   28.92    3.91
   4   4 -10   34.24    4.26
   4   4 -10   35.39    4.73
  -4   4  10   37.73    4.18
  -4   4  10   37.91    3.94
  -2  -4  10    6.99    2.33
  -2  -4  10    2.34    2.11
   2  -4 -10    2.94    2.20
   2  -4 -10    2.14    3.03
  -2   4  10   -0.69    1.94
  -2   4  10    4.69    2.02
   2   4 -10   -1.46    2.93
   2   4 -10    2.84    2.55
   0  -4  10  162.46    8.45
   0  -4  10  159.89    8.65
   0  -4 -10  161.98    8.86
   0  -4 -10  173.84   10.07
   0   4  10  164.11    8.01
   0   4 -10  160.77    9.02
   0   4  10  167.66    8.74
   0   4 -10  166.91   10.23
   2  -4  10    2.37    2.68
   2  -4  10    2.28    2.23
  -2  -4 -10    3.95    2.71
  -2  -4 -10   -0.32    3.53
   2   4  10    2.15    1.84
   2   4  10    5.94    2.56
  -2   4 -10    6.73    2.82
  -2   4 -10    4.09    3.78
   4  -4  10   14.08    3.12
  -4  -4 -10   15.96    3.63
   4   4  10    4.09    2.87
  -4   4 -10    5.83    3.15
  -4   4 -10    5.88    4.42
   4   4  10    4.52    2.65
  -4   4 -10    6.08    2.65
  -6  -4 -10   84.31    7.33
   6  -4  10   76.83    7.06
   6   4  10   81.43    7.28
  -6   4 -10   72.29    6.75
  -8  -4 -10   26.54    5.02
   8  -4  10   37.74    5.18
  -8   4 -10   23.81    4.61
   8   4  10   21.90    4.63
 -10  -4 -10   28.55    5.40
  10  -4  10   23.76    4.57
 -10   4 -10   14.40    4.54
  10   4  10   20.71    5.05
  12  -4  10    3.45    3.87
 -12  -4 -10    3.99    4.21
 -12   4 -10    3.72    3.80
  12   4  10    3.67    4.28
  14  -4  10   12.67    5.03
 -14  -4 -10   19.58    6.58
 -14   4 -10   10.49    4.37
  14   4  10   20.14    6.08
 -19  -5  10    0.74    4.16
  19  -5 -10   -3.20    3.30
  19  -5 -10    5.93    5.09
 -19  -5  10   -6.45    3.97
  19  -5 -10    0.63    3.86
  19   5 -10   -1.22    3.58
 -19   5  10    1.19    3.68
  17  -5 -10    0.64    3.44
 -17  -5  10    1.36    4.09
 -17  -5  10    4.73    4.07
  17  -5 -10   -4.32    4.25
  17  -5 -10   -3.82    3.06
 -17   5  10   -0.15    3.40
  17   5 -10   -6.25    2.99
 -15  -5  10   24.95    5.19
  15  -5 -10   37.35    5.90
  15  -5 -10   33.16    5.89
  15  -5 -10   36.42    5.53
 -15  -5  10   40.68    5.87
  15   5 -10   39.37    5.42
 -15   5  10   42.19    5.54
  13  -5 -10   11.80    3.66
  13  -5 -10   11.66    4.19
  13  -5 -10    8.55    4.31
 -13  -5  10    8.94    3.92
 -13   5  10    9.19    3.34
  13   5 -10   11.17    3.68
  13   5 -10   12.48    3.80
 -11  -5  10    2.29    2.86
  11  -5 -10   -1.03    2.65
  11  -5 -10    5.43    2.91
  11  -5 -10   -0.45    3.37
 -11   5  10    3.87    2.93
  11   5 -10    2.30    3.03
  11   5 -10   -1.34    2.68
   9  -5 -10   69.98    6.22
   9  -5 -10   74.83    7.29
  -9  -5  10   70.64    6.60
  -9  -5  10   80.76    5.57
   9  -5 -10   67.07    6.60
   9   5 -10   78.46    6.76
   9   5 -10   66.92    6.76
  -9   5  10   89.62    6.56
  -7  -5  10   86.06    5.55
  -7  -5  10   76.98    6.74
   7  -5 -10   86.45    6.00
   7  -5 -10  101.26    6.70
   7  -5 -10   66.83    6.47
   7  -5 -10   84.62    7.71
   7   5 -10   84.97    7.00
  -7   5  10   77.82    6.60
   7   5 -10   79.00    6.97
  -5  -5  10    8.54    3.00
  -5  -5  10    6.60    2.36
   5  -5 -10    2.87    3.15
   5  -5 -10    8.80    2.90
   5  -5 -10    6.15    2.74
   5  -5 -10    8.49    2.70
  -5   5  10    3.90    2.55
   5   5 -10    3.47    3.27
   5   5 -10    7.93    3.07
   3  -5 -10   22.10    3.62
  -3  -5  10   15.53    3.51
  -3  -5  10   18.27    3.27
   3  -5 -10   19.36    4.51
  -3   5  10   19.50    3.53
   3   5 -10   27.58    4.74
  -3   5  10   17.88    3.13
   3   5 -10   16.72    3.61
  -1  -5  10   12.30    3.02
  -1  -5  10   17.56    3.33
   1  -5 -10   22.16    4.88
   1  -5 -10   17.61    3.57
   1   5 -10   17.34    3.73
  -1   5  10   14.13    2.95
   1   5 -10   17.34    4.59
  -1   5  10   24.85    3.78
   1  -5  10   16.34    3.52
  -1  -5 -10   16.95    3.64
   1  -5  10   17.48    3.31
  -1  -5 -10   24.41    5.47
  -1   5 -10   27.80    4.57
   1   5  10   19.79    3.10
   1   5  10   15.38    3.44
  -1   5 -10   21.20    4.96
   3  -5  10  100.08    7.29
  -3  -5 -10   96.09    7.41
   3  -5  10  112.28    6.85
  -3   5 -10  100.81    8.09
   3   5  10  106.50    7.45
  -3   5 -10  126.48   10.86
  -5  -5 -10   42.99    5.58
   5  -5  10   39.96    5.10
  -5   5 -10   49.19    5.79
   5   5  10   40.47    5.60
   7  -5  10   -1.56    2.97
  -7  -5 -10    4.15    3.47
   7   5  10    3.59    3.34
  -7   5 -10    6.00    3.66
   9  -5  10   -2.16    3.25
  -9  -5 -10    3.53    4.17
   9   5  10    5.43    4.11
  -9   5 -10    3.67    3.51
  11  -5  10    1.84    3.64
 -11  -5 -10    4.70    4.52
 -11   5 -10   12.65    4.60
  11   5  10    7.28    4.73
 -13  -5 -10    8.48    5.05
  13  -5  10    0.25    3.94
  13   5  10   -4.88    4.50
 -13   5 -10   -1.18    3.72
  18  -6 -10   15.35    4.99
  18  -6 -10   19.80    5.24
  18  -6 -10   30.91    7.01
 -18  -6  10   27.26    6.11
 -18  -6  10   20.88    5.65
 -18   6  10   19.13    4.99
  18   6 -10   14.10    4.79
  16  -6 -10    1.35    5.26
  16  -6 -10    5.62    4.08
  16  -6 -10   -0.57    3.49
 -16  -6  10    2.27    4.25
 -16   6  10   -0.37    3.20
  16   6 -10   -0.50    3.97
  16   6 -10    1.37    3.83
  14  -6 -10    5.29    3.64
  14  -6 -10   14.80    5.50
 -14  -6  10   17.31    4.87
  14  -6 -10    7.54    4.01
  14   6 -10   10.49    4.51
  14   6 -10   21.34    4.80
 -14   6  10   10.55    3.71
  12  -6 -10   -2.65    2.84
 -12  -6  10   -1.44    3.18
  12  -6 -10   -7.61    3.54
  12  -6 -10   -1.74    3.11
  12   6 -10    0.47    3.32
  12   6 -10   -0.85    3.27
 -12   6  10   -0.98    2.88
  10  -6 -10    8.65    3.59
 -10  -6  10   12.49    4.01
  10  -6 -10   12.00    4.01
  10  -6 -10   12.11    5.08
  10   6 -10   15.33    3.98
 -10   6  10   11.48    3.68
  10   6 -10    5.70    4.22
   8  -6 -10    6.57    4.20
  -8  -6  10   11.05    3.72
   8  -6 -10   12.53    3.54
   8  -6 -10    8.42    3.62
   8   6 -10   14.26    4.76
  -8   6  10   10.79    3.30
   8   6 -10    6.25    3.43
   6  -6 -10   47.13    6.73
   6  -6 -10   45.89    5.66
   6  -6 -10   51.21    5.35
  -6  -6  10   53.90    5.82
   6  -6 -10   54.13    5.54
  -6  -6  10   58.54    5.07
   6   6 -10   46.37    6.50
  -6   6  10   48.04    5.49
   6   6 -10   49.78    5.64
  -4  -6  10    2.84    2.74
   4  -6 -10    9.99    4.38
   4  -6 -10    8.58    3.22
   4  -6 -10    6.19    2.90
   4  -6 -10    6.87    3.26
  -4  -6  10    4.38    2.66
   4   6 -10    8.27    4.53
  -4   6  10    9.60    3.11
   4   6 -10    5.67    3.45
   2  -6 -10   25.44    5.71
   2  -6 -10   17.32    3.39
  -2  -6  10   19.50    3.82
   2  -6 -10   15.19    3.68
   2  -6 -10   22.56    4.15
  -2  -6  10   10.89    3.29
  -2   6  10   11.61    3.26
   2   6 -10   19.28    5.42
   2   6 -10   18.28    4.09
   0  -6 -10    0.32    2.60
   0  -6 -10   -3.12    4.43
   0  -6  10   -2.48    2.60
   0  -6  10   -0.22    2.45
   0  -6 -10    3.09    3.01
   0  -6 -10   -2.27    2.71
   0   6 -10    0.22    4.16
   0   6 -10    1.22    2.99
   0   6  10    2.28    2.77
   2  -6  10    1.51    2.71
  -2  -6 -10    7.72    3.28
   2  -6  10    5.99    3.02
  -2   6 -10    3.70    3.37
   2   6  10   12.29    3.48
  -2   6 -10   13.23    5.57
   4  -6  10   14.52    4.04
  -4  -6 -10    3.92    3.45
  -4   6 -10    0.76    3.34
   4   6  10    3.17    3.16
  -6  -6 -10    0.59    3.65
   6  -6  10    4.15    3.48
   6   6  10   -0.51    3.38
  -6   6 -10   -1.40    3.26
  -8  -6 -10   11.72    4.77
   8  -6  10    3.11    3.67
   8   6  10    5.58    4.17
  -8   6 -10   10.93    4.02
 -10  -6 -10    3.34    4.91
  10  -6  10    3.68    3.47
  10   6  10    1.66    4.15
 -10   6 -10    2.64    3.87
  12  -6  10   18.11    5.29
 -12  -6 -10    5.54    5.00
  12   6  10    2.96    5.38
 -12   6 -10    7.38    4.39
  17  -7 -10    2.43    4.41
  17  -7 -10    2.21    4.16
  17  -7 -10   -0.49    5.66
 -17  -7  10   -1.65    4.60
 -17   7  10    4.25    4.01
  17   7 -10    5.31    4.82
  17   7 -10   -0.17    5.75
 -15  -7  10   -3.01    4.34
  15  -7 -10    2.53    3.45
  15  -7 -10    6.79    3.98
  15  -7 -10   -2.84    5.40
 -15   7  10    3.14    3.66
  15   7 -10    7.34    4.28
  15   7 -10    0.65    5.07
  13  -7 -10   25.41    6.72
 -13  -7  10   22.92    5.56
  13  -7 -10   23.89    5.06
  13  -7 -10   17.38    5.08
 -13   7  10   23.97    5.08
  13   7 -10   19.14    5.81
  13   7 -10   18.59    4.93
  11  -7 -10    9.63    4.20
  11  -7 -10   18.64    6.04
  11  -7 -10   20.36    5.27
 -11  -7  10   17.79    4.67
  11   7 -10   19.46    5.68
 -11   7  10   10.21    3.92
  11   7 -10   16.43    4.52
   9  -7 -10   14.15    5.97
   9  -7 -10   16.19    4.36
  -9  -7  10   13.53    4.39
   9  -7 -10   12.33    4.58
   9   7 -10   14.45    4.38
   9   7 -10    0.03    4.82
  -9   7  10    0.35    3.01
  -7  -7  10   25.75    4.78
   7  -7 -10   20.77    5.81
   7  -7 -10   26.02    5.32
   7  -7 -10   23.03    4.46
   7   7 -10   21.28    4.53
   7   7 -10   22.89    6.05
  -7   7  10   21.78    4.38
   5  -7 -10   14.79    3.90
  -5  -7  10    4.05    3.16
   5  -7 -10   16.09    5.82
  -5  -7  10    8.94    3.08
   5  -7 -10    4.69    3.41
   5  -7 -10    7.57    3.71
   5   7 -10    8.45    3.74
  -5   7  10   13.38    3.94
   5   7 -10    5.58    4.95
  -3  -7  10    4.64    2.99
   3  -7 -10   -1.30    2.96
   3  -7 -10    5.63    3.12
  -3  -7  10    2.99    2.96
   3  -7 -10    4.79    3.22
   3  -7 -10    7.21    5.03
  -3   7  10   -4.50    2.42
   3   7 -10    2.55    4.68
   3   7 -10   -1.92    3.52
   1  -7 -10   24.30    7.52
   1  -7 -10   26.17    4.12
   1  -7 -10   22.45    4.39
   1  -7 -10   21.15    4.53
  -1  -7  10   25.64    4.35
  -1  -7  10   19.59    4.10
   1   7 -10   12.44    6.22
   1   7 -10   13.72    4.33
  -1   7  10   15.46    4.01
   1  -7  10    6.08    3.31
   1  -7  10    0.71    2.82
  -1  -7 -10   -3.09    2.88
  -1   7 -10    5.54    5.33
   1   7  10    4.05    3.28
  -1   7 -10   -1.92    3.37
  -3  -7 -10   53.44    6.42
   3  -7  10   43.43    5.83
  -3   7 -10   41.55    5.96
   3   7  10   34.71    5.29
   5  -7  10   16.83    4.83
  -5  -7 -10    8.75    4.15
   5   7  10   15.17    4.14
  -5   7 -10   12.20    4.48
  -7  -7 -10   -0.57    4.42
   7  -7  10   -0.45    3.71
  -7   7 -10    3.29    4.08
   7   7  10    1.87    3.54
  -9  -7 -10    3.47    4.46
   9  -7  10    2.97    3.57
  -9   7 -10   -5.87    3.41
   9   7  10   -4.98    3.02
  14  -8 -10    3.16    6.30
  14  -8 -10   -4.74    3.86
  14  -8 -10    4.95    4.98
 -14  -8  10   -2.15    4.73
  14   8 -10    1.75    5.98
  14   8 -10   -6.09    4.47
 -14   8  10    3.72    3.90
  12  -8 -10   -0.35    5.89
 -12  -8  10   14.41    5.38
  12  -8 -10   13.59    5.70
  12  -8 -10   15.39    5.17
  12   8 -10   14.80    6.64
  12   8 -10   10.15    4.98
 -12   8  10   19.22    4.95
  10  -8 -10   11.03    5.40
 -10  -8  10   10.91    4.48
  10  -8 -10   12.35    6.48
  10  -8 -10    7.00    4.67
  10   8 -10    2.43    4.40
 -10   8  10    8.87    3.84
  10   8 -10   13.10    6.13
  -8  -8  10    0.10    3.58
   8  -8 -10   -4.77    3.41
   8  -8 -10   -3.03    4.07
   8  -8 -10   -3.33    5.24
  -8   8  10   -0.28    3.44
   8   8 -10    3.63    5.67
   8   8 -10    0.98    4.27
   6  -8 -10    4.85    4.05
   6  -8 -10   -0.26    6.14
   6  -8 -10    0.55    3.37
  -6  -8  10   -1.93    3.28
   6   8 -10    1.69    5.44
   6   8 -10    4.68    4.27
  -6   8  10   -4.92    2.75
  -4  -8  10   85.81    7.25
   4  -8 -10   61.05    9.69
  -4  -8  10   65.55    7.17
   4  -8 -10   90.14    8.56
   4  -8 -10   68.32    7.06
   4  -8 -10   81.95    7.59
  -4   8  10   63.66    7.09
   4   8 -10   71.03    7.95
   4   8 -10   95.38   10.54
   2  -8 -10   21.75    4.91
   2  -8 -10   18.89    5.31
  -2  -8  10   15.92    4.12
  -2  -8  10   27.90    4.96
   2  -8 -10   24.19    4.71
   2   8 -10   16.89    4.92
   2   8 -10   22.97    7.04
  -2   8  10   16.79    4.29
   0  -8 -10    7.48    3.94
   0  -8  10    7.69    3.90
   0  -8  10   -1.26    3.00
   0   8 -10    5.76    4.42
   0   8  10   12.69    4.12
   0   8 -10    0.66    6.21
  -2  -8 -10    7.86    3.93
   2  -8  10   11.78    4.14
  -2   8 -10   11.16    5.40
   2   8  10    4.35    3.45
   4  -8  10    5.14    4.48
  -4  -8 -10    9.96    4.22
   4   8  10    8.69    4.29
  -4   8 -10   21.50    5.47
  -6  -8 -10   21.73    5.39
   6  -8  10   13.12    5.26
  -6   8 -10   30.20    5.94
   6   8  10   27.06    5.27
   8  -8  10    0.19    4.31
  -8  -8 -10   -2.08    4.49
  -8   8 -10    0.87    5.13
   8   8  10   -0.75    3.59
  13  -9 -10    3.25    5.22
 -13  -9  10   -8.49    4.27
  13  -9 -10   -1.39    7.18
  13  -9 -10    0.56    5.76
  13   9 -10    0.80    5.62
  13   9 -10    6.53    7.47
 -13   9  10   -1.50    3.83
  11  -9 -10   25.46    9.17
 -11  -9  10   33.20    6.31
  11  -9 -10   24.64    6.10
  11  -9 -10   26.37    6.89
  11   9 -10   19.61    7.97
 -11   9  10   29.62    5.81
  11   9 -10   22.53    6.59
  -9  -9  10   19.02    5.37
   9  -9 -10   20.15    6.19
   9  -9 -10   18.38    5.43
   9  -9 -10   26.47    8.86
   9   9 -10   21.79    7.66
  -9   9  10   30.21    5.59
   9   9 -10   14.97    6.04
   7  -9 -10    6.99    4.62
   7  -9 -10    1.17    4.89
   7  -9 -10    6.52    8.43
  -7  -9  10   14.17    4.74
   7   9 -10   15.44    5.55
   7   9 -10    0.55    6.53
  -7   9  10    6.11    4.23
   5  -9 -10    1.20    4.66
   5  -9 -10    1.28    3.87
  -5  -9  10    1.28    3.51
   5   9 -10    7.74    5.15
   5   9 -10    2.65    6.21
  -5   9  10    1.22    3.60
  -3  -9  10    0.52    3.79
   3  -9 -10    2.39    3.93
   3   9 -10   -2.42    5.98
  -3   9  10    3.94    3.72
   3   9 -10   -2.26    4.79
   1  -9 -10   12.20    4.63
  -1  -9  10   10.65    4.52
  -1  -9  10    4.18    4.45
  -1   9  10   12.61    4.57
   1   9 -10    2.33    5.03
  -1  -9 -10    3.13    3.76
   1  -9  10    0.17    3.73
  -1   9 -10   -0.21    4.70
   1   9  10    5.83    4.18
   3  -9  10   -3.63    3.71
  -3  -9 -10    3.28    3.87
   3   9  10    1.04    3.84
  -3   9 -10    2.07    4.83
  -5  -9 -10    5.03    4.20
   5  -9  10    6.08    4.80
  -5   9 -10    4.35    5.11
   5   9  10   -4.80    3.33
  -8 -10  10   26.86    6.08
   8 -10 -10   24.35    6.31
   8 -10 -10   17.37    6.68
   8  10 -10   32.21    9.85
  -8  10  10   17.09    5.38
   8  10 -10   20.14    6.92
   6 -10 -10   83.70    8.91
  -6 -10  10   59.42    8.05
   6 -10 -10   73.69    9.36
  -6  10  10   75.22    8.56
   6  10 -10   84.90   12.40
   6  10 -10   69.33    9.32
  -4 -10  10   95.94    9.52
   4  10 -10  102.98   14.34
   4  10 -10   87.60   10.03
  -4  10  10   80.64    8.75
  -2 -10  10   12.52    6.10
   2 -10 -10   19.13    5.44
   2  10 -10   -1.01    5.09
  -2  10  10    0.97    4.45
   0 -10 -10   -4.81    4.20
   0 -10  10   -1.69    4.17
   0  10 -10   -7.70    5.19
   0  10  10   -0.34    3.71
  22   0 -11   -5.80    3.75
 -22   0  11    3.80    4.22
  22   0 -11   -0.37    3.26
 -20   0  11    1.25    4.04
 -20   0  11    2.61    3.35
  20   0 -11    2.17    2.81
 -18   0  11    3.65    3.52
 -18   0  11    0.37    3.01
  18   0 -11   -0.24    2.05
 -16   0  11    0.42    2.98
  16   0 -11    0.40    2.63
  16   0 -11    1.54    1.41
  16   0 -11   -0.84    2.57
 -16   0  11   -1.27    2.61
 -14   0  11    5.96    2.91
 -14   0  11   -1.70    2.23
 -14   0  11    1.94    2.47
 -14   0  11    4.03    2.69
 -12   0  11    3.20    2.14
 -12   0  11    1.79    2.25
 -12   0  11    0.42    2.10
 -12   0  11    0.64    1.97
 -10   0  11    0.38    1.76
 -10   0  11    1.73    1.74
 -10   0  11   -0.67    1.85
 -10   0  11    1.41    1.85
   8   0 -11    0.72    1.03
  -8   0  11    1.09    1.97
  -8   0  11    0.06    1.56
  -8   0  11    0.82    1.53
   8   0 -11   -0.10    1.03
  -8   0  11   -0.19    1.70
  -6   0  11   -0.08    1.53
   6   0 -11   -0.52    1.54
   6   0 -11   -1.24    1.17
   6   0 -11    2.25    1.79
  -6   0  11   -1.75    1.56
   6   0 -11    0.97    1.47
  -4   0  11   -1.39    1.57
  -4   0  11    3.39    1.49
   4   0 -11   -1.86    1.71
   4   0 -11    1.27    1.74
   4   0 -11    0.73    1.37
   2   0 -11    0.81    1.66
  -2   0  11    0.94    1.59
  -2   0  11   -1.90    1.26
   2   0 -11   -0.10    1.95
   2   0 -11    0.82    1.48
   0   0  11    1.48    1.51
   0   0  11    1.43    1.73
   0   0 -11    1.43    2.39
   0   0 -11    0.82    1.89
   0   0 -11   -0.02    1.52
  -2   0 -11    1.06    2.89
  -2   0 -11   -1.39    2.01
  -2   0 -11    0.85    1.67
   2   0  11    1.07    1.70
   2   0  11   -0.09    1.72
  -4   0 -11   -3.68    1.92
  -4   0 -11    4.59    3.50
  -4   0 -11   -0.65    1.88
   4   0  11   -0.90    2.00
   4   0  11    1.00    1.94
   6   0  11   -0.45    2.22
  -6   0 -11    1.78    2.26
  -6   0 -11   -4.13    2.09
   6   0  11    1.59    2.20
   8   0  11    2.12    2.37
  -8   0 -11    3.12    3.01
   8   0  11    1.92    2.66
  -8   0 -11   -2.27    2.45
 -10   0 -11   -0.35    2.62
  10   0  11   -5.96    2.45
  10   0  11   -1.36    3.10
 -12   0 -11   -2.90    3.21
  12   0  11    5.17    3.93
 -14   0 -11   -3.87    3.74
  14   0  11    2.91    4.47
  21  -1 -11    0.36    3.01
 -21  -1  11    3.98    4.31
  21   1 -11    0.24    4.01
 -21   1  11    1.59    3.68
  21   1 -11    1.93    3.17
 -21   1  11    7.21    4.88
 -19  -1  11   33.42    5.46
  19  -1 -11   25.29    4.06
  19   1 -11   24.40    4.88
 -19   1  11   28.80    4.92
  19   1 -11   26.68    3.62
 -19   1  11   28.33    5.51
 -17  -1  11   66.61    7.09
  17  -1 -11   69.24    4.92
  17  -1 -11   72.66    6.28
 -17  -1  11   62.21    6.39
  17  -1 -11   63.73    6.53
  17   1 -11   61.68    4.21
 -17   1  11   76.96    6.66
 -17   1  11   56.54    6.37
 -15  -1  11   30.98    4.42
  15  -1 -11   32.03    3.06
 -15  -1  11   40.39    4.61
  15  -1 -11   34.44    4.76
 -15  -1  11   42.91    5.01
  15  -1 -11   27.06    4.08
 -15  -1  11   42.87    4.48
 -15   1  11   37.32    4.35
 -15   1  11   24.27    4.24
  13  -1 -11   60.18    4.85
 -13  -1  11   60.00    5.26
  13  -1 -11   54.77    3.41
 -13  -1  11   69.02    5.59
 -13  -1  11   57.49    5.18
  13  -1 -11   55.99    3.28
 -13  -1  11   60.83    5.07
 -13   1  11   61.90    5.85
 -13   1  11   79.97    5.99
  11  -1 -11    0.93    0.96
 -11  -1  11   -0.57    1.95
 -11  -1  11   -1.53    1.67
 -11  -1  11   -0.99    1.62
  11  -1 -11   -0.11    1.55
  11  -1 -11    0.93    1.14
 -11  -1  11   -0.83    1.96
 -11   1  11   -1.69    1.67
 -11   1  11   -0.79    1.98
 -11   1  11    1.32    2.15
  -9  -1  11  129.88    7.04
   9  -1 -11  123.44    5.68
  -9  -1  11  130.63    6.57
   9  -1 -11  122.58    5.82
   9  -1 -11  124.30    6.73
  -9  -1  11  137.85    6.78
  -9  -1  11  122.57    6.80
  -9   1  11  131.97    6.14
  -9   1  11  128.18    6.91
  -9   1  11  131.73    7.04
  -7  -1  11   23.95    3.02
  -7  -1  11   23.52    3.20
   7  -1 -11   14.50    2.61
   7  -1 -11   25.46    2.33
  -7  -1  11   23.93    2.51
   7  -1 -11   25.35    2.83
   7  -1 -11   15.77    2.38
   7   1 -11   25.40    2.37
   7   1 -11   20.29    2.31
   7   1 -11   18.70    2.56
  -7   1  11   19.63    2.79
  -7   1  11   20.34    2.99
  -5  -1  11   12.16    2.52
   5  -1 -11   15.12    2.59
   5  -1 -11   12.79    1.83
  -5  -1  11   19.04    2.11
  -5  -1  11   15.33    2.57
   5  -1 -11   12.78    2.55
   5   1 -11   14.78    2.34
   5   1 -11   15.75    2.47
  -5   1  11   11.57    2.35
   5   1 -11   17.06    3.07
  -5   1  11   17.18    2.50
  -3  -1  11   34.52    3.61
   3  -1 -11   38.28    2.65
  -3  -1  11   35.81    2.79
   3  -1 -11   34.01    3.66
   3  -1 -11   47.57    4.50
   3   1 -11   38.10    3.43
   3   1 -11   35.64    3.67
   3   1 -11   44.20    4.35
  -3   1  11   33.80    3.47
  -3   1  11   43.01    3.57
  -1  -1  11    4.20    1.46
  -1  -1  11    0.45    1.67
   1  -1 -11   -1.21    1.75
   1  -1 -11    2.99    2.46
   1  -1 -11    3.07    1.41
   1   1 -11    0.07    2.43
   1   1 -11    3.73    2.10
  -1   1  11   -0.11    1.57
   1   1 -11    0.74    1.66
  -1   1  11    1.64    1.68
   1  -1  11  107.75    6.40
   1  -1  11  114.34    5.49
  -1  -1 -11  109.48    7.53
  -1  -1 -11  121.02    5.56
  -1  -1 -11  110.81    6.58
   1   1  11  113.15    6.33
  -1   1 -11  101.10    7.56
  -1   1 -11  101.06    5.96
   1   1  11  115.34    6.24
  -1   1 -11  112.01    6.57
  -3  -1 -11  200.84   10.00
   3  -1  11  200.43    9.85
   3  -1  11  213.39    9.12
  -3  -1 -11  207.55   11.59
  -3  -1 -11  204.38    9.01
   3   1  11  213.12    9.77
   3   1  11  196.10    9.46
  -3   1 -11  202.20    9.55
  -3   1 -11  192.70    9.82
  -3   1 -11  209.52   11.56
   5  -1  11   19.27    3.42
  -5  -1 -11   19.70    3.04
  -5  -1 -11   26.21    3.96
   5  -1  11   12.12    2.76
  -5  -1 -11   17.85    5.23
  -5   1 -11   15.09    3.21
  -5   1 -11   11.22    4.61
   5   1  11   17.76    3.09
   5   1  11   12.04    2.99
  -5   1 -11    8.97    2.90
   7  -1  11   49.55    5.07
  -7  -1 -11   57.61    5.19
   7  -1  11   46.68    5.03
  -7  -1 -11   49.19    5.35
  -7   1 -11   48.17    5.25
  -7   1 -11   58.03    5.50
   7   1  11   55.06    5.56
   7   1  11   54.09    5.06
   9  -1  11   11.87    3.36
   9  -1  11    6.93    3.00
  -9  -1 -11    5.71    3.17
  -9  -1 -11   11.41    3.80
   9   1  11    7.23    3.46
  -9   1 -11    7.47    3.25
  11  -1  11    4.42    3.50
  11  -1  11    7.15    3.93
 -11  -1 -11    2.62    3.50
 -11   1 -11    3.27    3.35
  11   1  11   10.11    4.04
 -13  -1 -11    1.74    3.99
  13  -1  11   -4.28    4.56
 -13   1 -11    1.34    3.91
  13   1  11    1.34    4.25
 -15  -1 -11   -2.44    4.57
  15   1  11    0.40    5.01
 -15   1 -11    3.45    4.53
  22  -2 -11   15.74    4.77
 -22  -2  11   16.09    5.50
 -22   2  11   22.81    5.58
 -22   2  11    7.14    5.11
  22   2 -11    7.48    4.04
  22   2 -11   10.89    5.04
  20  -2 -11   25.55    5.74
  20  -2 -11   29.67    4.85
  20  -2 -11   24.88    6.30
 -20  -2  11   26.79    5.32
  20   2 -11   24.14    5.19
  20   2 -11   25.51    4.12
 -20   2  11   27.12    5.76
 -20   2  11   25.48    5.22
  18  -2 -11   14.63    3.48
  18  -2 -11   12.09    4.23
 -18  -2  11   11.72    3.81
  18  -2 -11   15.35    3.90
 -18   2  11   12.10    3.80
 -18   2  11    8.12    4.15
  18   2 -11    1.56    3.34
  18   2 -11    5.00    2.63
  16  -2 -11   21.07    3.44
 -16  -2  11   32.70    4.84
  16  -2 -11   29.50    4.55
 -16  -2  11   33.38    4.66
  16  -2 -11   25.46    4.54
 -16   2  11   34.61    4.44
 -16   2  11   30.21    5.04
  16   2 -11   36.25    3.12
  16   2 -11   31.13    4.70
 -14  -2  11   18.63    3.82
  14  -2 -11   15.13    3.42
  14  -2 -11   18.80    3.93
 -14  -2  11   20.07    3.77
  14  -2 -11   13.89    2.66
 -14  -2  11   19.20    3.28
 -14   2  11   21.72    3.46
 -14   2  11   19.91    3.97
  14   2 -11   17.84    3.41
  14   2 -11   14.78    1.63
  14   2 -11   17.11    1.91
  12  -2 -11    6.42    2.31
  12  -2 -11    5.66    2.04
 -12  -2  11   14.18    3.20
 -12  -2  11    8.24    2.30
 -12  -2  11   10.57    2.62
 -12  -2  11    1.82    2.45
 -12   2  11    9.60    2.85
 -12   2  11    7.47    2.55
 -12   2  11    6.30    2.16
 -10  -2  11   38.34    4.45
 -10  -2  11   48.18    4.11
  10  -2 -11   45.61    4.07
  10  -2 -11   47.18    3.85
 -10  -2  11   50.08    4.01
 -10  -2  11   51.89    4.57
  10   2 -11   43.19    2.57
 -10   2  11   44.10    4.51
 -10   2  11   45.85    3.61
  10   2 -11   38.22    2.46
 -10   2  11   44.61    4.46
   8  -2 -11   61.29    4.46
  -8  -2  11   61.25    4.64
  -8  -2  11   60.54    3.84
   8  -2 -11   57.67    4.72
  -8  -2  11   54.40    4.98
  -8   2  11   68.84    5.40
  -8   2  11   57.86    4.85
   8   2 -11   58.02    4.80
   8   2 -11   59.69    3.86
   8   2 -11   58.59    3.67
  -6  -2  11  342.12   12.60
  -6  -2  11  317.45   13.60
   6  -2 -11  338.46   14.04
   6  -2 -11  322.93   13.76
  -6  -2  11  334.32   14.19
   6   2 -11  318.71   13.63
  -6   2  11  325.51   13.88
   6   2 -11  331.71   13.64
  -6   2  11  332.89   13.82
   6   2 -11  327.44   13.82
  -4  -2  11   59.07    4.73
  -4  -2  11   57.86    4.92
   4  -2 -11   62.37    4.96
   4  -2 -11   78.66    5.49
   4   2 -11   58.27    5.05
  -4   2  11   60.09    4.47
   4   2 -11   54.51    4.54
  -4   2  11   65.73    5.03
   2  -2 -11   15.86    3.27
   2  -2 -11   17.38    2.88
  -2  -2  11   15.42    2.72
  -2  -2  11   16.13    2.93
   2   2 -11   16.82    3.51
   2   2 -11   18.68    2.89
  -2   2  11   14.97    2.62
  -2   2  11   18.99    2.73
   0  -2 -11   74.57    6.74
   0  -2 -11   59.95    5.12
   0  -2  11   67.88    4.89
   0   2  11   56.00    4.65
   0   2  11   57.55    4.87
   0   2 -11   62.97    4.97
   0   2 -11   81.41    6.95
   0   2 -11   59.68    5.07
  -2  -2 -11  120.00    7.31
   2  -2  11  111.32    6.93
  -2  -2 -11  133.39    8.94
   2   2  11  124.82    6.92
  -2   2 -11  109.41    8.31
  -2   2 -11  111.67    6.84
   2   2  11  120.04    6.58
  -2   2 -11  116.02    6.80
  -4  -2 -11  201.46   11.95
  -4  -2 -11  190.21    9.88
   4  -2  11  166.73    9.51
   4   2  11  178.46    9.64
  -4   2 -11  199.99    9.47
  -4   2 -11  192.96   11.76
   4   2  11  190.78    9.00
  -4   2 -11  197.10    9.69
  -6  -2 -11  385.91   16.84
  -6  -2 -11  391.17   17.10
   6  -2  11  376.95   16.66
   6   2  11  406.85   16.84
  -6   2 -11  374.36   16.57
  -6   2 -11  367.14   16.05
   6   2  11  359.06   15.67
  -8  -2 -11   23.66    4.32
  -8  -2 -11   14.18    4.05
   8  -2  11   19.04    3.81
   8   2  11   18.47    4.10
  -8   2 -11   21.03    4.20
 -10  -2 -11   -0.06    3.77
  10  -2  11    6.03    3.31
 -10  -2 -11    4.60    3.93
  10   2  11    9.97    4.12
 -10   2 -11    2.04    3.03
  12  -2  11    1.70    3.66
 -12   2 -11   -1.16    3.19
  12   2  11   -1.77    3.80
  14   2  11   -7.79    4.51
 -14   2 -11   -1.58    4.11
  21  -3 -11    5.34    5.27
  21  -3 -11   -0.59    4.43
 -21  -3  11    3.08    4.41
  21  -3 -11    8.16    3.95
 -21   3  11    1.04    4.40
  21   3 -11   -3.17    3.17
  21   3 -11    3.41    4.12
  19  -3 -11   10.88    3.95
 -19  -3  11   14.70    4.73
  19  -3 -11   11.96    4.16
  19  -3 -11    9.00    4.43
  19   3 -11   13.91    4.59
  19   3 -11   19.17    3.85
 -19   3  11    3.56    4.19
  17  -3 -11  105.29    8.30
  17  -3 -11   68.38    7.93
 -17  -3  11  101.02    8.18
  17  -3 -11   99.35    7.33
 -17  -3  11   86.96    8.01
 -17   3  11   77.85    7.82
  17   3 -11   97.72    7.86
  17   3 -11   90.65    6.18
 -15  -3  11   55.56    6.12
  15  -3 -11   53.52    6.26
 -15  -3  11   65.27    6.37
  15  -3 -11   62.10    5.69
  15  -3 -11   62.63    6.15
 -15   3  11   54.27    6.16
  15   3 -11   57.35    4.48
  15   3 -11   55.41    5.75
  13  -3 -11   56.91    5.91
  13  -3 -11   55.55    5.20
 -13  -3  11   63.08    5.95
 -13  -3  11   60.69    5.99
  13  -3 -11   47.35    5.33
  13   3 -11   53.64    4.13
 -13   3  11   68.36    6.30
  13   3 -11   63.23    5.39
 -11  -3  11   12.18    3.10
  11  -3 -11   12.67    2.76
 -11  -3  11   13.58    2.68
  11  -3 -11   12.71    3.35
  11  -3 -11    8.94    3.11
  11  -3 -11    9.39    2.84
 -11   3  11   11.11    3.15
  11   3 -11    8.00    3.01
  11   3 -11   10.48    2.89
  11   3 -11   12.02    2.36
   9  -3 -11   59.91    4.69
   9  -3 -11   51.93    4.72
  -9  -3  11   56.85    4.46
  -9  -3  11   53.21    5.21
  -9   3  11   45.30    4.73
   9   3 -11   40.89    3.98
  -9   3  11   44.67    4.74
   9   3 -11   43.79    4.60
   7  -3 -11  166.94    8.32
  -7  -3  11  168.81    8.14
   7  -3 -11  161.65    8.79
  -7  -3  11  181.85    9.06
   7   3 -11  156.98    8.46
  -7   3  11  160.60    8.54
   7   3 -11  171.27    8.49
  -7   3  11  170.36    8.86
   5  -3 -11   21.47    3.67
   5  -3 -11   21.80    3.26
  -5  -3  11   21.51    3.46
  -5  -3  11   19.90    2.86
  -5   3  11   26.35    3.46
   5   3 -11   23.20    3.59
  -5   3  11   26.59    3.53
   5   3 -11   18.71    3.19
   3  -3 -11   59.30    5.84
   3  -3 -11   64.32    5.35
  -3  -3  11   51.27    4.84
  -3  -3  11   60.66    4.91
   3   3 -11   50.30    5.51
  -3   3  11   63.17    4.51
   3   3 -11   63.41    5.24
  -3   3  11   63.44    5.28
   1  -3 -11    7.72    2.72
  -1  -3  11    6.75    2.41
   1  -3 -11   10.15    3.73
  -1  -3  11    3.70    2.27
  -1   3  11    7.48    2.40
   1   3 -11    5.08    2.39
  -1   3  11    5.38    2.06
   1   3 -11    9.87    3.42
  -1  -3 -11   67.99    5.97
   1  -3  11   69.27    5.65
  -1  -3 -11   71.65    6.81
  -1   3 -11   72.34    5.34
   1   3  11   69.26    5.27
  -1   3 -11   58.14    5.61
   1   3  11   65.05    4.78
  -1   3 -11   72.78    7.01
  -3  -3 -11  220.69   11.20
  -3  -3 -11  250.40   13.21
   3  -3  11  223.72   11.28
  -3   3 -11  223.33   10.62
  -3   3 -11  226.32   11.05
   3   3  11  219.32   10.23
  -3   3 -11  238.93   13.12
   3   3  11  223.24   11.04
   5  -3  11    4.52    2.56
  -5  -3 -11   -1.05    2.94
   5   3  11   -1.26    2.32
  -5   3 -11    0.35    2.73
  -5   3 -11   -1.34    4.45
   5   3  11    4.22    2.83
  -5   3 -11    2.33    2.63
  -7  -3 -11   36.20    5.30
   7  -3  11   38.69    5.21
   7   3  11   47.20    5.66
  -7   3 -11   42.60    5.38
  -9  -3 -11    5.44    3.76
   9  -3  11   -0.36    2.78
  -9   3 -11    2.03    3.10
   9   3  11   -3.92    3.02
 -11  -3 -11    1.16    4.15
  11  -3  11   -2.18    3.01
 -11   3 -11   -3.26    3.10
  11   3  11    0.39    3.86
  13  -3  11    0.21    3.82
  13   3  11    1.62    4.43
 -13   3 -11   -0.69    3.62
  20  -4 -11    1.70    3.83
  20  -4 -11    8.52    4.85
 -20  -4  11   -2.01    4.32
  20  -4 -11   -0.98    3.99
 -20   4  11    4.01    4.79
  20   4 -11    3.77    3.38
  18  -4 -11    4.27    3.84
 -18  -4  11   14.56    4.64
  18  -4 -11   13.40    4.15
  18  -4 -11    5.69    4.11
 -18  -4  11    6.75    3.84
  18   4 -11    6.51    3.59
 -18   4  11    5.37    4.37
 -16  -4  11   24.86    4.94
  16  -4 -11   25.04    4.63
  16  -4 -11   27.30    5.44
 -16  -4  11   14.41    4.41
  16  -4 -11   16.27    4.22
 -16   4  11   10.68    4.01
  16   4 -11   20.91    3.72
 -14  -4  11    0.24    3.03
 -14  -4  11    4.76    3.35
  14  -4 -11   -1.24    2.89
  14  -4 -11    6.00    3.42
  14  -4 -11    6.26    3.41
 -14   4  11    3.19    2.91
  14   4 -11    3.03    2.60
  12  -4 -11   69.66    6.50
  12  -4 -11   64.18    6.67
  12  -4 -11   73.45    6.55
 -12  -4  11   60.95    6.41
  12   4 -11   73.57    5.75
 -12   4  11   69.14    6.52
  12   4 -11   78.24    6.95
  10  -4 -11    8.13    3.58
  10  -4 -11   13.28    3.44
 -10  -4  11   12.07    2.66
  10  -4 -11   10.66    3.00
  10  -4 -11    9.19    2.97
 -10  -4  11   14.99    3.73
  10   4 -11    9.27    2.93
 -10   4  11   11.76    3.18
  10   4 -11   10.17    3.28
  -8  -4  11    4.80    2.26
   8  -4 -11   10.77    3.37
   8  -4 -11    9.28    2.57
  -8  -4  11   12.23    3.17
   8   4 -11   10.00    3.16
   8   4 -11    6.94    2.86
  -8   4  11   10.53    3.00
  -8   4  11   14.45    3.33
  -6  -4  11    5.56    2.72
  -6  -4  11    6.65    2.24
   6  -4 -11    3.78    2.21
   6  -4 -11    9.50    3.24
   6   4 -11    4.27    3.08
  -6   4  11    5.18    2.50
  -6   4  11    8.37    2.72
   6   4 -11    8.73    2.84
   4  -4 -11   67.96    5.80
  -4  -4  11   69.42    5.89
   4  -4 -11   78.54    7.03
  -4  -4  11   72.54    5.09
   4   4 -11   70.59    5.88
  -4   4  11   71.76    5.46
  -4   4  11   64.97    5.56
   4   4 -11   63.98    6.41
   2  -4 -11   53.60    5.38
  -2  -4  11   66.75    5.45
   2  -4 -11   59.10    6.45
  -2  -4  11   46.54    4.86
   2   4 -11   65.60    6.71
   2   4 -11   54.03    5.31
  -2   4  11   47.67    4.51
  -2   4  11   52.04    5.02
   0  -4  11    1.73    2.19
   0  -4 -11   -1.33    2.41
   0  -4 -11   -1.89    3.07
   0  -4  11    1.28    2.32
   0   4  11   -5.05    1.82
   0   4 -11    7.49    3.36
   0   4 -11    1.31    3.41
   0   4  11    0.55    1.92
   2  -4  11   -7.23    2.03
  -2  -4 -11   -3.57    2.42
   2  -4  11    0.45    2.26
  -2  -4 -11   -0.77    3.48
  -2   4 -11    0.75    2.56
  -2   4 -11   -1.66    3.76
   2   4  11    5.13    2.73
   2   4  11    3.27    2.08
  -4  -4 -11    0.51    2.82
   4  -4  11    3.98    2.80
  -4   4 -11    4.44    4.71
  -4   4 -11    5.05    2.96
   4   4  11    4.94    2.80
  -4   4 -11    5.58    2.82
   6  -4  11    7.53    3.23
  -6  -4 -11   10.14    3.85
  -6   4 -11    9.08    3.50
   6   4  11    6.82    3.64
   8  -4  11    9.05    3.84
  -8  -4 -11   16.83    4.52
   8   4  11   20.71    4.66
  -8   4 -11   16.13    4.46
  10  -4  11    7.30    3.99
 -10  -4 -11    4.00    4.20
  10   4  11    9.13    4.73
 -10   4 -11   10.17    4.07
 -12  -4 -11    6.97    5.40
  12  -4  11   11.83    4.61
  12   4  11   16.46    5.40
 -12   4 -11    9.02    4.37
 -19  -5  11    1.51    4.58
  19  -5 -11    5.24    5.15
  19  -5 -11    0.08    4.16
 -19  -5  11    0.08    4.34
  19  -5 -11    7.16    4.45
  19   5 -11   -2.09    3.66
 -19   5  11    4.44    3.98
  17  -5 -11   12.03    5.24
 -17  -5  11   17.61    4.89
  17  -5 -11   19.36    4.77
  17  -5 -11   14.77    4.96
 -17  -5  11   10.36    4.86
  17   5 -11   10.30    4.15
 -17   5  11   11.83    4.64
 -15  -5  11    2.36    3.89
  15  -5 -11   12.31    4.43
  15  -5 -11    0.98    3.16
  15  -5 -11    2.32    3.36
 -15   5  11    0.23    3.13
  15   5 -11   -1.39    3.39
  15   5 -11   -1.36    3.12
  13  -5 -11  109.36    7.77
  13  -5 -11  103.27    8.81
  13  -5 -11   77.48    7.81
 -13  -5  11   91.02    8.43
 -13   5  11  107.84    7.93
  13   5 -11   73.74    7.46
  13   5 -11   95.77    7.61
 -11  -5  11  104.92    8.69
  11  -5 -11  107.51    8.93
  11  -5 -11  116.31    8.33
  11  -5 -11  105.46    7.65
  11   5 -11  109.24    7.73
  11   5 -11  109.43    8.04
 -11   5  11  111.93    7.89
  -9  -5  11   89.72    7.73
   9  -5 -11   77.49    7.26
  -9  -5  11  108.16    6.16
   9  -5 -11   90.65    8.21
   9  -5 -11  101.52    6.80
   9  -5 -11   85.97    7.17
  -9   5  11   82.83    7.09
   9   5 -11   94.46    7.75
   9   5 -11   92.17    7.48
   7  -5 -11  222.48   11.54
   7  -5 -11  197.06   11.77
  -7  -5  11  213.89    9.98
   7  -5 -11  204.23   10.84
  -7  -5  11  190.32   10.84
   7  -5 -11  210.66   10.37
  -7   5  11  215.89   10.95
   7   5 -11  205.11   11.37
   7   5 -11  220.90   11.22
  -5  -5  11   93.10    6.04
   5  -5 -11   79.87    7.78
   5  -5 -11   87.42    6.36
  -5  -5  11   85.39    7.23
  -5   5  11   81.88    6.52
   5   5 -11   74.70    6.76
  -5   5  11   94.45    6.61
   3  -5 -11  208.42   11.80
  -3  -5  11  187.82    9.62
  -3  -5  11  182.44    9.79
   3  -5 -11  176.70    9.75
   3   5 -11  185.79   11.47
   3   5 -11  168.03   10.23
  -3   5  11  178.84    9.34
  -3   5  11  197.40   10.06
  -1  -5  11   14.37    3.30
   1  -5 -11   20.26    4.07
   1  -5 -11   31.68    5.65
  -1  -5  11   17.39    3.49
  -1   5  11   18.78    3.20
  -1   5  11   17.22    3.63
   1   5 -11   23.39    4.43
   1   5 -11   24.46    5.17
  -1  -5 -11   25.53    4.28
   1  -5  11   27.19    4.07
   1  -5  11   32.89    4.71
  -1  -5 -11   39.97    6.71
  -1   5 -11   17.27    5.20
   1   5  11   28.32    4.51
   1   5  11   25.03    3.49
  -1   5 -11   28.87    4.57
   3  -5  11   11.08    3.64
   3  -5  11    7.93    3.10
  -3  -5 -11   14.38    3.70
   3   5  11   15.43    3.70
  -3   5 -11   12.67    5.12
  -3   5 -11    9.95    3.59
  -5  -5 -11    5.00    3.54
   5  -5  11    5.27    3.20
  -5   5 -11    6.07    3.34
   5   5  11    5.94    3.40
  -7  -5 -11   -6.07    3.11
   7  -5  11    0.75    3.06
  -7   5 -11    5.84    3.53
   7   5  11    2.75    3.62
   9  -5  11   27.25    5.38
  -9  -5 -11   30.17    5.73
   9   5  11   29.42    6.41
  -9   5 -11   33.82    5.67
 -11  -5 -11   20.69    5.96
  11  -5  11   10.91    4.34
  11   5  11   18.61    5.63
 -11   5 -11   12.47    4.52
  18  -6 -11    5.18    5.56
  18  -6 -11    9.59    4.76
 -18  -6  11   12.16    5.15
  18  -6 -11    5.76    4.77
  18   6 -11    9.47    4.93
  18   6 -11    8.65    5.05
 -18   6  11    2.81    4.02
  16  -6 -11    4.12    3.99
  16  -6 -11    3.60    5.24
 -16  -6  11    5.87    4.46
  16  -6 -11   -1.29    3.66
  16   6 -11    2.02    3.84
  16   6 -11    5.94    4.29
 -16   6  11    3.98    3.38
  14  -6 -11   -1.18    3.15
  14  -6 -11   -1.24    2.88
  14  -6 -11   -0.95    4.32
 -14  -6  11   -5.70    3.61
 -14   6  11    3.16    3.50
  14   6 -11   -1.97    3.67
  14   6 -11   -0.59    3.68
  12  -6 -11   60.68    6.61
  12  -6 -11   49.37    6.93
  12  -6 -11   51.81    7.21
 -12  -6  11   46.68    6.42
 -12   6  11   37.30    5.54
  12   6 -11   49.28    6.42
  12   6 -11   41.65    5.99
  10  -6 -11    0.27    3.36
  10  -6 -11    6.33    4.50
 -10  -6  11    0.39    3.33
  10  -6 -11    4.57    3.26
  10   6 -11    5.04    4.11
  10   6 -11   -1.98    2.79
 -10   6  11   -1.21    2.60
  -8  -6  11   10.34    4.80
   8  -6 -11    5.38    3.48
   8  -6 -11    7.41    4.52
  -8  -6  11    2.58    3.21
   8  -6 -11    7.50    3.77
   8  -6 -11    5.02    3.16
   8   6 -11    6.77    4.29
  -8   6  11    4.80    3.27
   8   6 -11    3.07    3.25
  -6  -6  11  158.72    8.30
   6  -6 -11  141.80    8.95
   6  -6 -11  156.26   11.15
  -6  -6  11  149.71    9.48
   6  -6 -11  150.48    8.89
   6  -6 -11  158.38    9.67
  -6   6  11  131.19    9.01
   6   6 -11  142.82    9.51
   6   6 -11  153.32   10.59
   4  -6 -11  228.18   11.08
   4  -6 -11  236.79   11.91
  -4  -6  11  200.50   11.10
   4  -6 -11  239.31   13.70
  -4  -6  11  187.40   10.44
   4  -6 -11  218.61   11.15
   4   6 -11  225.78   13.24
  -4   6  11  191.10   10.99
   4   6 -11  209.36   11.57
  -2  -6  11   26.65    4.30
   2  -6 -11   41.02    5.13
  -2  -6  11   24.38    4.20
   2  -6 -11   29.90    4.57
   2  -6 -11   31.48    6.33
   2  -6 -11   36.42    4.58
  -2   6  11   24.98    4.38
   2   6 -11   29.00    5.06
   2   6 -11   29.23    6.04
   0  -6  11    3.17    2.74
   0  -6 -11   -0.10    2.69
   0  -6  11    7.90    3.20
   0   6  11    4.22    2.83
   0   6  11    5.34    3.23
   0   6 -11   -5.30    3.87
   0   6 -11   -0.22    3.05
   2  -6  11    0.56    2.89
  -2  -6 -11    2.18    2.92
   2  -6  11    6.12    3.40
  -2   6 -11    3.04    4.80
   2   6  11    1.88    2.87
  -2   6 -11   -3.30    2.95
  -4  -6 -11   38.18    5.81
   4  -6  11   34.80    5.56
   4   6  11   55.68    6.23
  -4   6 -11   40.90    5.81
   6  -6  11   46.01    5.98
  -6  -6 -11   44.85    6.56
  -6   6 -11   44.79    6.25
   6   6  11   42.70    6.17
   8  -6  11   12.55    4.43
  -8  -6 -11    9.83    4.93
   8   6  11    7.38    4.53
  -8   6 -11    9.83    4.30
 -10  -6 -11   34.02    6.71
  10  -6  11   24.66    5.59
  10   6  11   32.38    6.42
 -10   6 -11   33.14    6.14
  17  -7 -11   -1.84    3.64
 -17  -7  11   -2.51    4.44
  17  -7 -11    1.47    3.71
  17  -7 -11   -2.50    5.73
  17   7 -11    4.96    5.11
 -17   7  11    1.77    3.83
  17   7 -11    0.46    4.43
  15  -7 -11   -5.29    2.93
  15  -7 -11   -0.72    3.44
  15  -7 -11    0.85    5.49
 -15  -7  11   -0.94    4.59
  15   7 -11    4.91    4.31
 -15   7  11    1.19    3.15
  15   7 -11    1.38    4.78
  13  -7 -11  136.51   12.10
  13  -7 -11  128.86   10.34
  13  -7 -11  132.23   11.45
 -13  -7  11  120.17   10.58
 -13   7  11  121.69   10.20
  13   7 -11  114.10   10.85
  13   7 -11  118.00   10.31
  11  -7 -11  128.73   10.05
  11  -7 -11  133.12   10.41
 -11  -7  11  121.17   10.23
  11  -7 -11  137.43   12.21
  11   7 -11  133.26    9.79
 -11   7  11  123.43    9.07
  11   7 -11  131.93   11.41
   9  -7 -11  110.51   11.10
   9  -7 -11   91.63    8.20
   9  -7 -11  111.93    9.79
  -9  -7  11   74.69    7.93
  -9   7  11   88.73    7.93
   9   7 -11   73.40    7.71
   9   7 -11   81.63    9.07
  -7  -7  11   59.83    6.69
   7  -7 -11   52.89    6.38
   7  -7 -11   72.57    7.53
   7  -7 -11   54.04    8.40
   7  -7 -11   62.21    6.52
   7   7 -11   60.57    6.84
   7   7 -11   55.86    8.16
  -7   7  11   57.82    6.53
   5  -7 -11  217.18   12.09
   5  -7 -11  210.24   11.32
   5  -7 -11  191.52   13.81
  -5  -7  11  190.88   11.19
  -5  -7  11  201.21   10.47
   5  -7 -11  197.89   10.95
  -5   7  11  186.79   11.23
   5   7 -11  202.54   11.84
   3  -7 -11  113.50    8.57
  -3  -7  11  102.69    7.40
   3  -7 -11  104.06    7.60
   3  -7 -11  108.95   10.87
   3  -7 -11  103.01    7.63
  -3  -7  11   93.03    8.12
   3   7 -11   94.27   10.19
   3   7 -11  104.28    8.67
  -3   7  11  108.54    7.93
   1  -7 -11    3.34    3.48
  -1  -7  11    3.57    3.10
   1  -7 -11    8.76    4.37
   1  -7 -11    5.85    7.18
   1  -7 -11    8.70    3.94
  -1  -7  11    9.90    3.88
   1   7 -11   13.45    5.68
   1   7 -11   10.50    4.12
  -1   7  11    6.52    3.45
  -1  -7 -11   41.59    6.07
   1  -7  11   39.99    5.32
   1  -7  11   33.42    5.40
  -1   7 -11   43.81    8.01
  -1   7 -11   37.03    5.78
   1   7  11   51.82    6.26
   3  -7  11   14.79    4.26
  -3  -7 -11   17.90    4.43
  -3   7 -11   19.50    5.02
   3   7  11   16.65    4.00
  -5  -7 -11    0.23    3.59
   5  -7  11    2.93    3.90
  -5   7 -11    3.50    3.70
   5   7  11    0.56    3.54
  -7  -7 -11   -1.52    4.25
   7  -7  11    3.11    4.32
  -7   7 -11   -3.22    3.43
   7   7  11    3.86    4.18
  -9  -7 -11   -0.03    4.53
   9  -7  11   -5.96    3.62
  -9   7 -11    7.00    4.33
   9   7  11    8.62    5.07
  14  -8 -11    1.95    4.12
 -14  -8  11    2.47    5.00
  14  -8 -11    9.01    6.48
  14  -8 -11    2.61    4.81
  14   8 -11   -2.64    5.91
 -14   8  11   -6.00    3.35
  14   8 -11    2.99    4.29
 -12  -8  11   10.95    5.30
  12  -8 -11    1.21    4.01
  12  -8 -11    7.01    6.56
  12  -8 -11    2.61    4.67
  12   8 -11    8.72    4.70
  12   8 -11    6.90    6.14
 -12   8  11    3.91    3.78
 -10  -8  11    2.38    3.61
  10  -8 -11   -2.89    4.23
  10  -8 -11    3.70    4.12
  10  -8 -11    1.58    6.32
 -10   8  11    5.24    3.57
  10   8 -11    1.33    4.20
  10   8 -11    4.82    5.67
   8  -8 -11   43.75    8.77
  -8  -8  11   29.20    5.50
   8  -8 -11   20.78    5.82
   8  -8 -11   29.61    5.53
  -8   8  11   27.97    5.26
   8   8 -11   35.52    7.83
   8   8 -11   24.82    5.62
   6  -8 -11    8.71    4.01
   6  -8 -11    7.06    6.16
   6  -8 -11   10.85    4.80
   6  -8 -11    8.12    6.44
  -6  -8  11    9.65    4.02
  -6   8  11    3.78    3.44
   6   8 -11    7.12    5.84
   6   8 -11    6.39    4.55
  -4  -8  11   25.80    4.89
   4  -8 -11   25.74    5.00
   4  -8 -11   16.03    4.61
  -4  -8  11   21.87    4.43
   4  -8 -11   20.10    5.66
   4  -8 -11   22.24    8.02
   4   8 -11   23.44    5.44
  -4   8  11   21.83    4.75
   4   8 -11   15.94    7.13
  -2  -8  11    5.48    3.75
  -2  -8  11    2.10    3.33
   2  -8 -11    9.36    4.12
   2   8 -11   -1.78    5.64
   2   8 -11   -0.18    3.64
  -2   8  11    3.64    3.55
   0  -8  11    3.98    3.75
   0  -8  11    1.60    3.68
   0  -8 -11    4.13    3.86
   0   8 -11   -6.46    3.22
   0   8  11   -3.85    2.89
   0   8 -11   10.31    7.31
  -2  -8 -11   -0.98    3.78
   2  -8  11   -2.36    3.68
   2   8  11    4.90    3.80
  -2   8 -11    0.22    3.99
   4  -8  11   -0.65    3.94
  -4  -8 -11    4.38    4.08
   4   8  11    0.87    3.75
  -4   8 -11   -1.60    3.73
   6  -8  11   15.62    5.70
  -6  -8 -11   12.68    4.83
  -6   8 -11   11.97    4.70
   6   8  11   18.19    5.25
  11  -9 -11   18.57    8.15
  11  -9 -11    8.47    4.94
  11  -9 -11    7.69    5.74
 -11  -9  11   14.22    4.76
 -11   9  11    8.80    4.50
  11   9 -11    8.65    5.78
  11   9 -11   -1.99    6.61
   9  -9 -11    5.97    7.59
   9  -9 -11   14.00    5.97
   9  -9 -11   23.70    5.76
  -9  -9  11   23.39    6.08
   9   9 -11   13.62    7.21
   9   9 -11    6.23    5.97
  -9   9  11   15.54    4.93
   7  -9 -11   13.67    6.70
   7  -9 -11   17.02    5.88
  -7  -9  11   15.25    5.23
   7  -9 -11   14.32    9.05
  -7   9  11   12.84    4.65
   7   9 -11   10.35    5.50
   7   9 -11    8.92    6.89
  -5  -9  11   46.86    6.78
   5  -9 -11   44.82    7.31
   5  -9 -11   62.55    7.21
  -5   9  11   37.17    6.10
   5   9 -11   29.13    8.22
   5   9 -11   46.41    7.49
  -3  -9  11   68.58    7.71
   3  -9 -11   71.48    7.77
  -3  -9  11   63.20    7.28
  -3   9  11   62.85    7.65
   3   9 -11   63.26   10.70
   3   9 -11   47.57    7.84
   1  -9 -11   -3.08    3.69
  -1  -9  11   -2.34    4.53
  -1  -9  11    1.72    4.09
  -1   9  11   -9.90    2.98
   1   9 -11   -2.07    4.56
  -1  -9 -11   13.24    4.99
   1  -9  11   11.90    4.92
  -1   9 -11   12.98    5.56
   1   9  11    2.59    3.76
  -3  -9 -11    9.27    4.31
   3  -9  11    1.01    4.65
  -3   9 -11   -4.12    4.80
   3   9  11   -7.58    3.04
  -6 -10  11   16.73    5.68
   6 -10 -11   12.61    5.84
   6 -10 -11    7.99    6.43
   6  10 -11   15.75    8.46
   6  10 -11   15.98    6.74
  -6  10  11   12.84    5.09
  -4 -10  11   17.87    5.67
   4  10 -11   21.80    6.82
  -4  10  11   15.73    4.80
   4  10 -11   23.32   10.05
  -2 -10  11    1.59    7.06
   2 -10 -11   11.78    5.15
   2  10 -11   -1.18    5.53
  -2  10  11   -3.53    4.30
  22   0 -12   -2.59    3.13
 -22   0  12    4.27    4.39
  22   0 -12    7.43    4.49
 -20   0  12   63.47    7.68
 -20   0  12   55.28    6.75
  20   0 -12   71.01    5.67
 -18   0  12  128.12    8.69
  18   0 -12  130.58    6.72
 -18   0  12  139.65    9.34
  16   0 -12    2.26    2.83
  16   0 -12   -0.71    2.67
 -16   0  12    8.35    3.45
  16   0 -12    2.37    1.22
 -16   0  12    4.55    2.89
 -14   0  12   10.23    2.99
 -14   0  12   10.24    3.01
 -14   0  12    9.75    2.96
 -14   0  12    8.79    2.84
 -12   0  12   14.00    2.86
 -12   0  12   15.27    3.11
 -12   0  12   10.78    2.57
 -12   0  12    2.85    2.25
 -10   0  12   60.60    5.25
 -10   0  12   69.18    4.60
 -10   0  12   72.97    5.01
 -10   0  12   61.58    4.96
   8   0 -12   17.89    2.21
  -8   0  12   17.31    3.07
  -8   0  12   22.33    3.13
  -8   0  12   20.60    2.82
   8   0 -12   17.54    2.40
   8   0 -12   16.52    2.19
   6   0 -12   80.44    5.38
   6   0 -12   75.85    4.39
  -6   0  12   76.73    5.16
   6   0 -12   76.77    4.86
  -6   0  12   76.30    4.59
  -4   0  12    6.74    2.18
   4   0 -12    6.04    2.23
  -4   0  12    4.95    1.74
   4   0 -12    6.64    2.29
   4   0 -12    0.78    1.69
   2   0 -12   72.07    6.14
   2   0 -12   82.03    4.52
  -2   0  12   80.67    4.67
   2   0 -12   77.10    5.32
  -2   0  12   70.23    5.10
   0   0 -12  244.03   12.31
   0   0  12  255.38   11.17
   0   0 -12  246.46   10.34
   0   0  12  248.23   10.45
   0   0 -12  233.40   11.22
  -2   0 -12   52.63    6.18
  -2   0 -12   46.50    4.80
  -2   0 -12   51.32    4.30
   2   0  12   55.72    4.49
   2   0  12   42.64    4.38
  -4   0 -12  278.00   14.35
   4   0  12  240.07   11.74
  -4   0 -12  254.40   12.11
   4   0  12  269.30   11.67
  -4   0 -12  256.42   11.57
  -6   0 -12   -3.53    2.34
  -6   0 -12    0.25    2.39
   6   0  12    4.65    2.50
   6   0  12   -3.91    2.46
   8   0  12   19.23    3.81
   8   0  12   26.48    4.52
  -8   0 -12   28.54    4.29
  -8   0 -12   40.06    4.99
  10   0  12   -1.55    3.41
 -10   0 -12   -3.28    2.91
  12   0  12   -3.35    4.26
 -12   0 -12    3.63    3.85
 -14   0 -12   14.11    4.84
  14   0  12   13.13    6.02
 -21  -1  12    9.81    4.52
  21  -1 -12   15.10    3.98
  21   1 -12   18.13    5.24
  21   1 -12   12.75    3.70
 -21   1  12    8.84    4.62
 -21   1  12   15.23    5.06
  19  -1 -12    9.54    3.07
 -19  -1  12   12.33    4.24
  19  -1 -12   14.91    6.07
  19  -1 -12   12.78    5.86
 -19   1  12   10.73    4.06
  19   1 -12   11.60    2.73
  19   1 -12    5.38    3.54
 -19   1  12    7.47    4.51
  17  -1 -12  104.53    7.46
  17  -1 -12   99.28    5.85
 -17  -1  12  112.27    8.25
  17  -1 -12  102.58    7.90
 -17  -1  12  114.77    8.14
 -17   1  12  100.50    7.97
  17   1 -12  101.21    4.92
 -17   1  12  101.29    8.52
 -15  -1  12    4.09    3.01
 -15  -1  12    7.64    2.93
  15  -1 -12    2.22    2.76
  15  -1 -12    0.76    2.66
  15  -1 -12    7.65    1.75
 -15  -1  12    8.94    3.17
 -15  -1  12    4.47    2.82
 -15   1  12    8.97    3.40
 -15   1  12   13.73    3.08
 -13  -1  12   25.68    3.87
  13  -1 -12   16.94    1.90
 -13  -1  12   23.38    3.57
  13  -1 -12   18.56    3.14
 -13  -1  12   14.90    3.16
 -13  -1  12   23.09    3.71
  13  -1 -12   17.43    2.15
 -13   1  12   21.94    3.33
 -13   1  12   17.91    3.56
 -13   1  12   20.89    3.46
 -11  -1  12   12.44    2.87
 -11  -1  12   11.59    2.75
  11  -1 -12    8.56    1.62
  11  -1 -12   10.41    1.88
 -11  -1  12   12.40    2.79
  11  -1 -12    6.14    2.40
 -11  -1  12   11.03    2.66
 -11   1  12   12.28    2.98
 -11   1  12   12.55    2.54
 -11   1  12   14.51    3.04
   9  -1 -12  178.02    7.68
   9  -1 -12  170.17    7.84
  -9  -1  12  167.15    8.43
  -9  -1  12  167.41    8.90
   9  -1 -12  179.39    8.68
  -9  -1  12  175.63    8.13
  -9   1  12  184.09    8.71
   9   1 -12  173.08    8.33
   9   1 -12  167.90    6.96
  -9   1  12  176.00    8.71
   9   1 -12  168.99    7.03
  -9   1  12  178.25    7.74
   7  -1 -12   25.60    3.19
  -7  -1  12   37.10    3.14
  -7  -1  12   25.39    3.47
  -7  -1  12   25.64    3.35
   7  -1 -12   37.18    3.80
   7  -1 -12   34.94    3.88
  -7   1  12   32.62    3.58
   7   1 -12   33.52    3.15
   7   1 -12   28.40    3.12
  -7   1  12   35.54    3.63
   7   1 -12   31.63    3.29
  -5  -1  12  129.53    5.89
   5  -1 -12  129.85    7.05
  -5  -1  12  124.87    7.05
  -5  -1  12  128.79    6.77
   5  -1 -12  130.41    7.12
  -5   1  12  118.58    6.44
   5   1 -12  128.99    6.49
  -5   1  12  115.00    6.72
   5   1 -12  121.49    6.85
   3  -1 -12   25.35    3.72
  -3  -1  12   21.96    3.19
   3  -1 -12   13.34    2.89
  -3  -1  12   26.62    2.44
   3   1 -12   21.93    3.57
   3   1 -12   21.56    2.87
  -3   1  12   17.43    2.72
  -3   1  12   15.37    2.79
   3   1 -12   21.67    3.20
   1  -1 -12   19.54    3.20
   1  -1 -12   11.67    3.34
  -1  -1  12   19.38    2.33
  -1  -1  12    8.37    2.45
   1   1 -12   22.03    2.92
  -1   1  12   15.00    2.68
   1   1 -12   13.24    3.37
   1   1 -12   23.39    3.31
  -1   1  12   11.46    2.73
   1  -1  12   94.58    5.17
  -1  -1 -12   83.24    7.51
   1  -1  12   71.31    5.86
  -1  -1 -12   94.23    6.34
  -1  -1 -12   92.97    6.21
  -1   1 -12   84.94    5.45
   1   1  12   82.97    5.65
   1   1  12   91.34    5.65
  -1   1 -12   99.42    6.30
  -1   1 -12  102.65    8.35
   3  -1  12   12.06    3.02
  -3  -1 -12   17.78    4.35
   3  -1  12   16.27    2.78
  -3  -1 -12   11.91    3.04
  -3  -1 -12   14.97    2.89
   3   1  12   12.06    2.76
  -3   1 -12   15.88    4.57
  -3   1 -12   11.77    2.74
   3   1  12   19.84    3.20
  -3   1 -12   18.04    3.46
  -5  -1 -12  188.47    9.19
  -5  -1 -12  173.87   12.11
  -5  -1 -12  183.58    9.91
   5  -1  12  161.63    9.26
   5  -1  12  180.58    8.99
  -5   1 -12  191.79   12.40
   5   1  12  173.34    9.51
  -5   1 -12  169.31    9.31
  -5   1 -12  190.56    9.71
   5   1  12  191.37    9.29
  -7  -1 -12   11.69    3.58
   7  -1  12    9.69    3.37
  -7  -1 -12   13.35    3.54
   7  -1  12   10.17    3.12
   7   1  12   10.95    3.12
  -7   1 -12    8.15    3.29
   7   1  12   13.86    3.48
  -7   1 -12   16.48    3.67
  -9  -1 -12   27.02    5.09
  -9  -1 -12   29.41    4.94
   9  -1  12   18.51    4.15
   9   1  12   38.63    5.37
  -9   1 -12   22.13    4.49
  11  -1  12    1.07    3.73
 -11  -1 -12    1.11    4.11
 -11   1 -12   -4.79    3.19
  11   1  12    5.01    4.03
 -13  -1 -12   10.96    5.97
 -13   1 -12    0.08    3.84
  13   1  12   -2.23    4.31
 -22  -2  12   -0.86    4.33
  22  -2 -12   -3.90    3.38
  22   2 -12   -2.84    4.33
  22   2 -12    2.01    3.49
 -22   2  12    1.84    5.00
  20  -2 -12   11.87    3.90
 -20  -2  12    8.74    4.11
  20  -2 -12   14.01    5.33
  20  -2 -12    8.32    4.55
  20   2 -12    1.75    2.83
 -20   2  12    9.94    7.29
  20   2 -12    8.21    4.35
 -20   2  12    9.54    4.83
  18  -2 -12   20.10    4.68
  18  -2 -12   16.60    3.48
  18  -2 -12   16.14    4.09
 -18  -2  12   19.25    4.46
 -18   2  12   17.16    4.83
  18   2 -12   13.53    2.74
 -18   2  12   16.61    4.63
  18   2 -12   12.24    4.06
  16  -2 -12    6.04    3.20
 -16  -2  12    1.22    3.06
  16  -2 -12    6.08    3.46
  16  -2 -12    2.72    2.37
 -16  -2  12    5.64    3.30
  16   2 -12    3.33    1.52
 -16   2  12    2.57    3.15
  16   2 -12    2.64    2.85
 -16   2  12    1.18    3.28
  14  -2 -12   -0.15    2.73
 -14  -2  12    0.73    2.51
  14  -2 -12    2.45    2.05
 -14  -2  12    1.82    2.58
 -14  -2  12    0.92    2.72
  14  -2 -12    1.14    2.69
 -14  -2  12    2.32    2.89
  14   2 -12    3.14    2.65
 -14   2  12    1.17    2.83
  12  -2 -12    1.63    2.07
 -12  -2  12    4.13    2.41
 -12  -2  12    4.13    2.29
  12  -2 -12    0.64    1.94
 -12  -2  12    5.90    2.63
 -12  -2  12    3.20    2.64
 -12   2  12    4.72    2.71
 -12   2  12    5.92    2.87
 -10  -2  12    6.58    2.33
  10  -2 -12    9.67    2.43
  10  -2 -12    5.32    2.13
 -10  -2  12    8.14    2.42
 -10  -2  12    9.38    2.88
  10   2 -12    7.05    1.62
  10   2 -12    6.49    1.67
  10   2 -12    8.47    2.54
 -10   2  12    9.65    2.65
 -10   2  12    9.18    2.92
  -8  -2  12   11.36    2.61
   8  -2 -12    8.85    2.41
  -8  -2  12   10.17    2.70
  -8  -2  12   10.03    2.24
   8  -2 -12    9.22    2.55
   8   2 -12   12.29    2.61
   8   2 -12    7.44    2.21
  -8   2  12    4.76    2.37
  -8   2  12   10.04    2.76
  -6  -2  12   91.70    6.13
   6  -2 -12   92.75    6.27
   6  -2 -12   93.09    6.04
  -6  -2  12   96.60    5.94
   6   2 -12  102.24    5.99
   6   2 -12   97.85    5.91
  -6   2  12   97.30    5.97
  -6   2  12   89.18    5.87
  -4  -2  12   15.71    3.14
  -4  -2  12   12.42    2.60
   4  -2 -12   14.73    2.86
   4  -2 -12   14.55    3.21
  -4   2  12   11.13    2.51
   4   2 -12   14.90    2.74
  -4   2  12   10.35    2.44
   4   2 -12   10.69    2.93
  -2  -2  12   55.45    5.07
   2  -2 -12   57.96    5.39
   2  -2 -12   63.54    6.24
  -2  -2  12   70.77    5.47
  -2   2  12   49.68    4.64
  -2   2  12   61.19    4.91
   2   2 -12   63.42    5.91
   2   2 -12   56.89    4.76
   0  -2 -12   11.00    2.78
   0  -2 -12   -0.10    3.39
   0  -2  12    9.05    2.54
   0   2 -12    7.69    2.63
   0   2  12    9.32    2.47
   0   2 -12    6.74    2.52
   0   2 -12    3.35    3.13
   0   2  12    2.43    2.11
   2  -2  12    2.05    2.29
  -2  -2 -12    0.46    2.41
  -2  -2 -12   -0.29    3.31
   2   2  12    1.47    2.09
  -2   2 -12    2.89    2.40
  -2   2 -12    2.20    3.68
  -2   2 -12    4.68    2.48
   2   2  12    3.48    2.45
   4  -2  12    4.37    2.62
  -4  -2 -12   -1.51    3.65
  -4  -2 -12   -0.02    2.71
  -4   2 -12    1.56    3.79
  -4   2 -12   -1.78    2.39
  -4   2 -12    2.98    2.74
   4   2  12   -0.86    2.05
   4   2  12    4.95    2.71
   6  -2  12    4.46    2.66
  -6  -2 -12    1.65    3.16
  -6   2 -12    0.83    2.74
   6   2  12    0.72    2.63
   6   2  12    1.35    2.65
  -6   2 -12    6.84    3.22
   8  -2  12    8.10    3.28
  -8  -2 -12    6.49    3.93
   8   2  12    5.51    3.55
  -8   2 -12    2.90    3.16
  10  -2  12   -1.00    3.08
 -10  -2 -12   -3.19    3.53
  10   2  12    1.46    3.56
 -10   2 -12   -2.56    3.43
  12  -2  12   -0.14    3.71
  12   2  12    6.49    4.59
 -12   2 -12    1.97    3.99
  21  -3 -12   -2.50    3.59
  21  -3 -12   -4.15    4.35
 -21  -3  12    0.01    4.27
  21  -3 -12    2.41    4.58
  21   3 -12   -3.25    3.25
 -21   3  12    2.08    4.54
  21   3 -12    6.77    5.11
 -19  -3  12    0.70    3.67
  19  -3 -12    2.91    3.63
  19  -3 -12    1.75    3.77
  19  -3 -12    1.53    3.10
  19   3 -12    0.83    3.74
 -19   3  12   -6.21    3.61
  19   3 -12   -2.72    2.51
  17  -3 -12    4.80    2.97
  17  -3 -12    1.81    3.34
 -17  -3  12    3.36    3.76
  17  -3 -12    5.14    3.45
 -17  -3  12    4.97    3.34
 -17   3  12   -2.96    3.04
  17   3 -12    1.42    2.31
  17   3 -12    1.24    3.55
  15  -3 -12   28.73    4.91
  15  -3 -12   27.25    4.51
  15  -3 -12   20.76    3.78
 -15  -3  12   29.09    4.76
 -15  -3  12   18.68    4.27
  15   3 -12   26.26    5.09
 -15   3  12   27.55    4.75
  15   3 -12   28.49    3.10
  13  -3 -12   91.54    6.72
  13  -3 -12   97.61    7.11
  13  -3 -12  114.12    7.94
 -13  -3  12  115.25    7.76
 -13  -3  12  103.58    7.46
 -13   3  12  109.25    7.58
  13   3 -12  118.23    5.83
  11  -3 -12    0.16    2.29
  11  -3 -12    8.26    2.61
 -11  -3  12    1.63    2.22
 -11  -3  12    0.89    2.77
  11   3 -12   -1.00    2.44
 -11   3  12    3.95    2.92
  11   3 -12    2.75    1.97
 -11   3  12    2.81    2.86
   9  -3 -12   29.80    4.03
  -9  -3  12   27.69    4.14
   9  -3 -12   34.96    3.98
  -9  -3  12   39.05    4.04
  -9   3  12   29.61    4.00
   9   3 -12   32.28    4.21
   9   3 -12   22.62    3.32
  -9   3  12   34.34    4.25
   7  -3 -12   37.66    4.51
  -7  -3  12   34.11    4.38
   7  -3 -12   30.67    3.74
  -7  -3  12   34.59    3.77
   7   3 -12   28.10    3.85
  -7   3  12   37.57    4.27
  -7   3  12   39.22    4.40
   7   3 -12   29.33    4.00
   5  -3 -12   10.01    2.79
  -5  -3  12   13.25    2.68
  -5  -3  12   11.89    2.98
   5  -3 -12   12.81    3.47
  -5   3  12    9.07    2.64
   5   3 -12   12.38    3.25
  -5   3  12   12.22    2.76
   5   3 -12   15.30    3.01
  -3  -3  12  214.83   10.21
   3  -3 -12  219.71   11.31
   3  -3 -12  207.91   10.41
  -3  -3  12  201.02   10.42
  -3   3  12  207.39   10.21
  -3   3  12  214.83   10.05
   3   3 -12  222.65   10.48
   3   3 -12  225.82   11.23
   1  -3 -12    7.72    2.91
  -1  -3  12   12.40    3.01
   1  -3 -12   19.25    4.11
  -1  -3  12   19.21    3.40
  -1   3  12   17.85    3.14
   1   3 -12   14.98    3.37
  -1   3  12   16.58    2.91
   1   3 -12   23.01    4.59
  -1  -3 -12    1.58    2.56
   1  -3  12    1.80    2.36
  -1  -3 -12    2.10    3.42
  -1   3 -12    3.72    2.61
   1   3  12    0.57    2.20
  -1   3 -12    1.48    2.52
   1   3  12    0.41    2.01
  -1   3 -12    4.73    3.58
   3  -3  12    4.03    2.70
  -3  -3 -12    2.62    2.88
  -3  -3 -12    6.01    4.41
  -3   3 -12    0.97    2.56
  -3   3 -12    4.05    4.02
   3   3  12   -1.64    2.53
  -3   3 -12    3.28    2.60
   3   3  12    1.98    2.21
   5  -3  12   64.98    6.33
  -5  -3 -12   73.71    6.95
  -5   3 -12   64.68    6.16
   5   3  12   62.94    5.89
  -5   3 -12   72.26    6.09
   5   3  12   66.47    6.60
  -5   3 -12   84.27   14.48
   7  -3  12   -2.87    2.47
  -7  -3 -12    2.40    3.68
   7   3  12    3.60    3.35
  -7   3 -12   -1.43    2.83
  -9  -3 -12    3.61    3.95
   9  -3  12    1.06    3.19
   9   3  12    4.39    3.68
  -9   3 -12   10.51    4.06
  11  -3  12   28.53    5.26
 -11  -3 -12   32.18    6.08
  11   3  12   27.43    5.77
 -11   3 -12   25.88    5.56
  13  -3  12    5.28    4.72
 -13   3 -12    5.76    4.24
  13   3  12    0.51    4.47
  20  -4 -12   -2.41    3.83
  20  -4 -12    1.67    4.46
 -20  -4  12    5.30    4.68
  20  -4 -12   -0.65    3.73
 -20   4  12   -7.71    3.54
  20   4 -12    4.13    3.46
  18  -4 -12   -1.58    3.46
  18  -4 -12    1.01    3.59
 -18  -4  12   -2.00    3.34
  18  -4 -12    4.06    4.29
 -18  -4  12   -8.41    3.81
  18   4 -12   -2.43    2.96
 -18   4  12   -3.20    3.38
  16  -4 -12    0.64    3.37
  16  -4 -12    4.14    3.17
  16  -4 -12    6.41    3.38
 -16  -4  12   -0.26    3.55
 -16  -4  12    0.24    3.36
 -16   4  12    2.09    3.47
  16   4 -12    2.25    2.85
  14  -4 -12   15.19    4.12
 -14  -4  12   16.19    4.52
  14  -4 -12   20.00    4.38
  14  -4 -12   12.87    3.83
 -14   4  12   21.15    4.34
  14   4 -12   15.67    4.02
  14   4 -12   19.94    3.59
  12  -4 -12   -1.31    2.76
  12  -4 -12   -0.22    2.65
  12  -4 -12    4.74    3.10
 -12  -4  12   -2.08    2.94
  12   4 -12   -3.33    2.19
  12   4 -12    2.52    2.91
 -12   4  12   -2.68    2.60
 -10  -4  12   21.50    3.40
 -10  -4  12   19.48    4.15
  10  -4 -12   24.31    3.73
  10  -4 -12   21.04    3.86
  10  -4 -12   17.34    3.75
  10  -4 -12   23.07    4.14
  10   4 -12   17.61    3.53
  10   4 -12   20.60    4.14
 -10   4  12    8.03    3.17
   8  -4 -12   33.88    4.80
   8  -4 -12   36.97    4.27
  -8  -4  12   27.11    4.33
  -8  -4  12   27.83    3.54
   8   4 -12   26.91    4.16
   8   4 -12   35.21    4.58
  -8   4  12   31.79    4.36
  -8   4  12   31.85    4.32
  -6  -4  12    5.13    2.95
   6  -4 -12    5.13    2.62
   6  -4 -12    7.86    3.56
  -6  -4  12   11.24    2.62
  -6   4  12   11.06    2.92
  -6   4  12   11.12    2.97
   6   4 -12   10.96    3.14
   6   4 -12    7.71    3.36
  -4  -4  12    8.04    2.59
   4  -4 -12    6.29    3.44
  -4  -4  12   -0.50    2.28
   4  -4 -12    5.49    2.79
  -4   4  12    0.71    2.27
   4   4 -12    2.53    2.62
   4   4 -12    2.89    3.29
  -4   4  12    5.80    2.62
  -2  -4  12   94.62    6.35
   2  -4 -12  100.62    8.73
  -2  -4  12   87.61    6.18
   2  -4 -12   85.65    6.90
  -2   4  12   84.98    6.20
   2   4 -12   87.85    6.94
   2   4 -12   83.54    7.66
  -2   4  12   79.91    5.70
   0  -4  12   22.76    3.65
   0  -4 -12   20.44    3.92
   0  -4  12   26.88    3.95
   0  -4 -12   30.03    5.32
   0   4  12   14.74    3.33
   0   4 -12   17.24    3.88
   0   4 -12   20.94    4.73
   0   4  12   14.60    2.94
  -2  -4 -12   12.26    5.09
  -2  -4 -12    7.73    3.38
   2  -4  12    8.12    3.16
  -2   4 -12    4.76    4.39
  -2   4 -12   11.56    3.41
   2   4  12    7.27    2.56
  -2   4 -12   11.81    3.20
   2   4  12   13.20    3.33
   4  -4  12   37.66    4.98
  -4  -4 -12   32.50    5.09
  -4   4 -12   32.49    4.51
  -4   4 -12   45.45    7.13
   4   4  12   33.77    4.97
  -4   4 -12   29.71    4.66
   6  -4  12    3.65    3.06
  -6  -4 -12    3.23    3.53
  -6   4 -12    0.14    3.02
   6   4  12    5.77    3.48
  -8  -4 -12   23.64    5.26
   8  -4  12   19.71    4.66
  -8   4 -12   24.40    4.98
   8   4  12   21.34    5.18
  10  -4  12    1.92    3.76
 -10  -4 -12    5.71    4.42
 -10   4 -12    3.32    3.97
  10   4  12    3.94    4.37
 -12  -4 -12   -2.53    4.88
  12  -4  12    3.21    4.07
 -12   4 -12    1.46    3.91
  12   4  12   11.00    5.45
 -19  -5  12    6.82    4.87
  19  -5 -12    1.29    4.45
 -19  -5  12    4.36    5.40
  19  -5 -12    3.98    4.05
  19  -5 -12    3.73    4.20
 -19   5  12    0.31    4.29
  19   5 -12    4.70    4.04
  17  -5 -12   -0.80    3.63
  17  -5 -12    2.41    3.90
 -17  -5  12    0.62    4.05
 -17  -5  12    0.88    4.11
  17  -5 -12   -2.79    3.25
 -17   5  12    2.02    4.11
  17   5 -12   -0.01    3.67
  17   5 -12   -1.38    3.86
 -15  -5  12    8.66    4.18
  15  -5 -12    4.37    3.33
  15  -5 -12    8.30    4.09
  15  -5 -12    2.17    4.19
  15   5 -12    7.93    4.13
  15   5 -12    4.67    3.49
 -15   5  12    8.04    3.84
  13  -5 -12   54.16    6.83
  13  -5 -12   45.65    6.55
  13  -5 -12   56.54    6.39
 -13  -5  12   58.00    6.71
 -13   5  12   48.51    6.07
  13   5 -12   43.31    5.44
  13   5 -12   46.69    6.04
 -11  -5  12    2.86    3.71
  11  -5 -12    4.32    3.73
  11  -5 -12   -4.97    3.04
  11  -5 -12    2.38    3.43
  11   5 -12    2.57    3.24
  11   5 -12    4.51    3.09
 -11   5  12    0.09    2.73
  -9  -5  12   30.29    3.85
   9  -5 -12   16.75    4.61
   9  -5 -12   20.44    3.92
   9  -5 -12   24.62    3.93
  -9  -5  12   15.45    3.94
   9  -5 -12   12.44    3.79
  -9   5  12   11.89    3.76
   9   5 -12   11.50    3.72
   9   5 -12   17.60    4.10
   7  -5 -12    3.95    3.04
  -7  -5  12    3.84    3.00
  -7  -5  12    3.92    2.56
   7  -5 -12    0.96    2.68
  -7   5  12    3.41    2.74
   7   5 -12   -3.97    3.06
  -7   5  12    1.23    2.51
   7   5 -12    4.14    3.13
   5  -5 -12   10.17    3.18
  -5  -5  12   10.70    3.34
   5  -5 -12    6.81    4.12
  -5  -5  12   12.64    3.12
   5   5 -12    5.06    4.02
   5   5 -12    7.57    3.44
  -5   5  12    8.76    3.13
  -5   5  12    9.37    3.22
  -3  -5  12    3.00    2.80
   3  -5 -12    8.93    3.34
  -3  -5  12    9.96    3.06
   3  -5 -12    9.77    4.14
  -3   5  12    7.45    2.76
   3   5 -12    2.14    3.19
   3   5 -12    8.22    3.99
  -3   5  12    6.54    3.06
   1  -5 -12    0.94    2.71
  -1  -5  12   -0.24    2.54
   1  -5 -12   11.01    4.57
  -1  -5  12    3.59    2.73
   1   5 -12    4.99    3.32
  -1   5  12   -2.42    2.42
   1   5 -12    4.22    4.34
  -1   5  12    1.33    2.39
  -1  -5 -12   27.33    4.44
  -1  -5 -12   23.64    6.17
   1  -5  12   24.64    4.21
   1  -5  12   21.31    4.11
   1   5  12   17.36    3.86
  -1   5 -12   20.40    4.06
   1   5  12   25.75    3.76
  -1   5 -12   25.22    5.70
  -3  -5 -12    5.83    3.41
   3  -5  12    7.21    3.65
  -3   5 -12   15.21    3.50
  -3   5 -12    8.22    5.20
   3   5  12    3.80    3.16
  -3   5 -12    4.92    3.33
   5  -5  12   25.29    4.79
  -5  -5 -12   27.53    5.17
   5   5  12   24.53    4.84
  -5   5 -12   22.66    4.80
  -7  -5 -12    3.81    4.11
   7  -5  12    0.76    3.42
  -7   5 -12    0.65    3.44
   7   5  12   -0.78    3.50
   9  -5  12   -0.60    3.47
  -9  -5 -12    5.99    4.94
   9   5  12    0.09    4.04
  -9   5 -12    7.88    3.93
  11  -5  12    5.63    4.14
 -11  -5 -12    2.20    5.02
  11   5  12    3.65    4.75
 -11   5 -12    4.87    4.37
  18  -6 -12    7.31    4.29
 -18  -6  12   14.11    5.67
  18  -6 -12   -4.43    5.15
  18  -6 -12    3.63    4.67
  18   6 -12    7.42    4.81
 -18   6  12   -0.12    4.17
  18   6 -12   12.49    4.68
  16  -6 -12   14.69    5.09
  16  -6 -12   13.07    5.48
  16  -6 -12   11.21    4.16
 -16  -6  12   11.97    5.54
 -16   6  12    9.58    4.20
  16   6 -12    3.95    5.05
  16   6 -12   18.57    5.07
  14  -6 -12   14.32    5.56
  14  -6 -12   27.85    5.19
 -14  -6  12   29.58    6.01
  14  -6 -12   29.21    5.78
  14   6 -12   28.85    5.64
  14   6 -12   30.60    5.41
 -14   6  12   24.90    5.46
  12  -6 -12    9.61    4.72
 -12  -6  12    4.55    4.17
  12  -6 -12    0.46    3.60
  12  -6 -12    5.71    3.58
 -12   6  12    0.98    3.09
  12   6 -12   -1.62    3.63
  12   6 -12    4.23    3.76
  10  -6 -12    1.56    3.37
 -10  -6  12    1.27    3.39
  10  -6 -12    0.18    4.11
  10  -6 -12   -3.28    2.89
  10   6 -12   -2.57    2.92
  10   6 -12   -0.83    3.88
 -10   6  12   -1.71    3.07
   8  -6 -12    9.96    4.13
  -8  -6  12   11.88    3.73
   8  -6 -12   14.27    3.95
   8  -6 -12    8.13    4.62
   8  -6 -12    9.75    3.68
  -8  -6  12   12.66    3.42
   8   6 -12   14.69    4.81
  -8   6  12   19.69    4.46
   8   6 -12    8.64    3.80
  -6  -6  12    2.81    3.13
  -6  -6  12    8.11    2.95
   6  -6 -12    8.17    3.42
   6  -6 -12    0.96    3.05
   6  -6 -12    3.11    4.58
   6  -6 -12   10.34    3.70
   6   6 -12    5.35    4.63
   6   6 -12   11.62    3.78
  -6   6  12    7.56    3.48
   4  -6 -12   25.91    4.53
   4  -6 -12   22.04    4.16
  -4  -6  12   12.96    3.78
   4  -6 -12   23.08    4.53
   4  -6 -12   18.86    5.95
  -4  -6  12   17.08    3.71
   4   6 -12   12.24    3.96
  -4   6  12   15.29    3.86
   4   6 -12   25.15    5.88
  -2  -6  12   55.15    5.89
  -2  -6  12   45.34    5.32
   2  -6 -12   48.31    5.67
  -2   6  12   43.69    5.06
   2   6 -12   58.22    7.87
   2   6 -12   53.36    6.11
  -2   6  12   46.63    5.68
   0  -6  12   55.47    6.16
   0  -6 -12   78.84    7.43
   0  -6 -12   87.78    9.68
   0  -6  12   70.89    6.43
   0   6  12   62.91    5.91
   0   6 -12   58.07    6.64
   0   6 -12   73.24    9.00
   0   6  12   67.24    6.69
  -2  -6 -12   58.67    6.81
   2  -6  12   52.17    5.72
   2  -6  12   57.56    6.65
  -2   6 -12   59.60    8.82
   2   6  12   63.33    6.75
  -2   6 -12   52.10    6.47
   4  -6  12    7.08    3.95
  -4  -6 -12   -2.63    3.76
  -4   6 -12   -2.24    3.36
   4   6  12    3.69    3.54
  -6  -6 -12   -1.99    4.23
   6  -6  12    0.58    3.49
   6   6  12    2.55    3.81
  -6   6 -12   -2.98    3.54
  -8  -6 -12   -6.67    4.22
   8  -6  12   -2.06    3.35
  -8   6 -12   13.48    4.60
   8   6  12   -0.12    4.31
 -10  -6 -12    4.12    5.23
  10  -6  12   -3.65    3.79
  10   6  12    1.49    4.92
 -10   6 -12    0.43    4.48
  17  -7 -12    5.33    6.49
 -17  -7  12   -0.94    5.02
  17  -7 -12    0.35    4.18
  17  -7 -12   -2.62    3.57
  17   7 -12   -2.43    4.21
  17   7 -12    2.96    4.53
 -17   7  12    1.10    3.66
 -15  -7  12   15.84    5.73
  15  -7 -12    8.57    6.11
  15  -7 -12   -0.79    4.11
  15  -7 -12    2.07    3.73
  15   7 -12   18.24    5.26
 -15   7  12   10.58    4.59
  15   7 -12   13.25    5.05
  13  -7 -12   53.76    8.27
 -13  -7  12   39.03    7.01
  13  -7 -12   41.22    6.99
  13  -7 -12   42.38    6.38
  13   7 -12   53.04    7.08
 -13   7  12   50.46    6.68
  13   7 -12   53.81    8.00
 -11  -7  12    0.86    3.96
  11  -7 -12   -2.14    3.34
  11  -7 -12    1.57    5.47
  11  -7 -12    3.56    4.44
 -11   7  12   -0.27    3.22
  11   7 -12   -2.33    3.69
  11   7 -12    1.56    5.19
   9  -7 -12    3.71    5.35
   9  -7 -12    8.79    3.96
   9  -7 -12    5.64    4.25
  -9  -7  12    8.14    4.06
   9   7 -12   -0.25    4.73
  -9   7  12    2.91    3.23
   9   7 -12   10.03    4.33
   7  -7 -12   18.10    6.24
   7  -7 -12   16.83    4.78
   7  -7 -12   11.02    4.17
   7  -7 -12   17.64    4.59
  -7  -7  12   14.27    4.50
   7   7 -12   15.55    5.86
  -7   7  12   14.84    4.14
   7   7 -12    8.84    4.19
   5  -7 -12   25.81    4.70
   5  -7 -12   19.43    4.80
   5  -7 -12   16.45    4.43
  -5  -7  12   16.92    4.29
   5  -7 -12    9.10    5.89
  -5  -7  12   10.46    3.59
  -5   7  12   10.15    3.91
   5   7 -12   23.82    6.10
   5   7 -12    7.55    4.19
  -3  -7  12   56.78    6.42
   3  -7 -12   60.85    6.66
   3  -7 -12   62.51    6.53
  -3  -7  12   58.83    6.22
   3  -7 -12   64.73    9.35
   3  -7 -12   70.79    7.15
   3   7 -12   52.95    6.90
   3   7 -12   49.23    8.51
  -3   7  12   53.52    6.41
   1  -7 -12    2.84    4.75
   1  -7 -12    5.86    3.45
   1  -7 -12    6.49    4.35
  -1  -7  12    4.73    3.33
  -1  -7  12    3.02    3.41
   1   7 -12    6.82    4.15
  -1   7  12    0.85    3.24
   1   7 -12   -2.15    5.47
   1  -7  12   35.80    5.45
   1  -7  12   35.42    5.63
  -1  -7 -12   38.21    5.78
  -1   7 -12   40.09    6.05
   1   7  12   36.33    5.75
  -1   7 -12   33.34    8.40
   3  -7  12   12.50    4.54
  -3  -7 -12   14.86    4.62
   3   7  12   15.02    4.68
  -3   7 -12    4.91    4.04
   5  -7  12    7.55    4.54
  -5  -7 -12    7.36    4.66
  -5   7 -12    4.27    3.86
   5   7  12    8.54    4.69
  -7  -7 -12   -2.87    4.39
   7  -7  12    4.86    4.18
   7   7  12   -6.68    3.93
  -7   7 -12   -1.11    4.23
  14  -8 -12    0.15    5.29
 -14  -8  12    4.30    5.34
  14  -8 -12    7.31    5.16
  14  -8 -12    9.37    7.02
  14   8 -12   -4.40    6.05
 -14   8  12    4.27    4.08
  14   8 -12    7.06    4.86
  12  -8 -12   -1.92    5.97
 -12  -8  12   -1.55    3.99
  12  -8 -12    9.76    5.45
  12  -8 -12    5.72    4.54
  12   8 -12    7.70    6.48
  12   8 -12    8.43    4.70
 -12   8  12    0.63    3.64
 -10  -8  12    6.99    4.32
  10  -8 -12    0.50    4.05
  10  -8 -12    8.43    6.40
  10  -8 -12    3.18    4.84
  10   8 -12    0.39    3.89
 -10   8  12    8.65    3.82
  10   8 -12    5.99    5.62
   8  -8 -12   23.34    5.21
   8  -8 -12   20.07    5.71
  -8  -8  12   16.96    5.18
   8  -8 -12   36.37    8.44
   8   8 -12   21.04    5.59
   8   8 -12   12.80    6.92
  -8   8  12   17.01    4.80
  -6  -8  12   43.64    6.51
   6  -8 -12   62.74    8.09
   6  -8 -12   81.83   10.64
   6  -8 -12   64.95    7.43
   6  -8 -12   48.67    6.67
  -6   8  12   59.87    7.04
   6   8 -12   65.34    9.32
   6   8 -12   52.93    7.21
   4  -8 -12   22.24    5.04
   4  -8 -12   17.26    7.71
  -4  -8  12   12.28    4.07
   4  -8 -12   15.79    4.39
  -4  -8  12   10.43    4.59
   4  -8 -12   24.02    5.72
  -4   8  12   13.18    4.27
   4   8 -12   17.32    6.80
   4   8 -12    6.79    4.50
  -2  -8  12    6.32    3.83
   2  -8 -12    1.34    4.26
  -2  -8  12    8.46    4.19
   2   8 -12    6.81    4.39
   2   8 -12   11.34    7.07
  -2   8  12    3.11    3.48
   0  -8  12   21.30    5.30
   0  -8  12   20.68    5.10
   0  -8 -12   20.70    4.90
   0   8  12   15.49    4.94
   0   8 -12   26.22    5.61
   0   8 -12   17.46    8.83
   2  -8  12   63.67    7.68
  -2  -8 -12   71.54    7.82
  -2   8 -12   57.47    7.41
   2   8  12   50.43    6.94
  -4  -8 -12   18.13    5.23
   4  -8  12   17.12    5.38
   4   8  12   10.98    4.37
  -4   8 -12    6.20    4.68
   6  -8  12    4.21    4.86
  -6  -8 -12   -0.60    4.36
  -6   8 -12   -0.70    3.96
   6   8  12    3.79    4.07
  11  -9 -12   -2.25    5.73
  11  -9 -12   11.98    5.56
  11  -9 -12    4.66    7.75
 -11  -9  12   15.13    5.94
 -11   9  12    9.12    4.41
  11   9 -12   14.83    7.67
  11   9 -12   -5.26    5.14
   9  -9 -12   -5.24    7.04
   9  -9 -12   -0.03    4.54
   9  -9 -12    2.01    5.36
  -9  -9  12    1.43    4.47
   9   9 -12    2.41    6.79
   9   9 -12    4.34    5.18
  -9   9  12   -0.22    3.54
   7  -9 -12   24.44    6.04
   7  -9 -12   43.36   10.66
  -7  -9  12   22.16    5.52
   7  -9 -12   30.49    7.04
   7   9 -12   25.91    8.84
   7   9 -12   16.00    5.75
  -7   9  12   23.91    5.41
   5  -9 -12   21.79    6.00
  -5  -9  12   10.39    4.76
   5  -9 -12   25.54    5.73
   5   9 -12    5.79    4.73
  -5   9  12   10.59    4.40
   5   9 -12   17.19    8.06
   3  -9 -12   12.17    4.91
  -3  -9  12    5.51    4.13
  -3  -9  12    4.91    4.35
  -3   9  12    2.67    4.01
   3   9 -12    4.42    4.50
   3   9 -12    5.07    7.72
  -1  -9  12    6.50    6.27
   1  -9 -12    3.77    4.33
  -1  -9  12    3.78    4.36
   1   9 -12    0.06    4.01
  -1   9  12    1.87    3.64
  -1  -9 -12    5.81    4.60
   1  -9  12   -2.70    4.45
   1   9  12   -1.52    3.81
  -1   9 -12    1.95    4.47
   3  -9  12    2.70    4.46
  -3  -9 -12    5.41    4.49
  -3   9 -12   -2.68    4.12
   3   9  12   -2.97    3.59
  22   0 -13    0.51    3.14
  22   0 -13    2.78    4.40
 -22   0  13    3.91    4.48
  20   0 -13    1.00    2.40
 -20   0  13   -1.36    3.36
 -20   0  13   -3.08    3.69
  18   0 -13   -1.98    1.60
 -18   0  13   -0.53    3.62
 -18   0  13    1.79    3.21
 -16   0  13    2.75    3.12
 -16   0  13   -1.47    2.57
 -16   0  13   -2.13    2.64
 -14   0  13   -1.93    2.29
 -14   0  13    1.09    2.45
 -14   0  13   -2.02    2.07
 -14   0  13    4.88    2.86
 -12   0  13   -0.18    2.26
 -12   0  13   -2.22    2.25
 -12   0  13   -2.44    1.94
 -12   0  13    1.07    2.03
  10   0 -13    0.92    1.37
  10   0 -13   -1.35    1.24
 -10   0  13    2.10    2.04
 -10   0  13   -1.48    2.06
 -10   0  13    4.36    2.45
 -10   0  13   -1.52    2.06
   8   0 -13   -0.29    1.59
   8   0 -13    1.49    1.72
  -8   0  13   -0.42    1.83
  -8   0  13   -3.27    1.88
   8   0 -13   -1.49    1.74
   6   0 -13   -2.37    1.78
  -6   0  13    0.63    1.60
   6   0 -13    0.03    1.75
  -6   0  13    1.88    1.97
   6   0 -13   -0.20    1.92
   4   0 -13    1.88    1.98
  -4   0  13    1.24    1.65
   4   0 -13    0.39    2.26
  -4   0  13   -0.78    1.90
   4   0 -13    1.37    2.16
   2   0 -13   -0.55    1.81
   2   0 -13    2.47    2.61
  -2   0  13    1.23    1.68
  -2   0  13    3.55    2.20
   2   0 -13    0.95    2.16
   0   0 -13    0.50    2.33
   0   0 -13    0.74    2.09
   0   0  13   -1.79    2.09
   0   0  13   -4.12    1.62
   0   0 -13    2.77    3.14
   2   0  13   -2.03    1.87
   2   0  13    0.21    2.02
  -2   0 -13   -0.94    2.18
  -2   0 -13   -2.98    2.30
  -2   0 -13    5.50    3.87
   4   0  13    1.04    2.24
  -4   0 -13    5.35    4.57
   4   0  13    0.84    2.39
  -4   0 -13    0.54    2.48
  -4   0 -13   -3.51    2.47
   6   0  13    6.22    2.90
  -6   0 -13   -7.56    2.58
   6   0  13   -3.59    2.03
  -6   0 -13   -4.50    2.63
   8   0  13   -1.67    3.44
   8   0  13    0.78    2.44
  -8   0 -13   -0.09    3.24
  -8   0 -13   -1.10    3.01
 -10   0 -13    3.54    3.82
  10   0  13   -4.18    4.13
 -12   0 -13   -2.85    4.70
 -21  -1  13    0.23    3.96
  21  -1 -13   -0.92    2.68
 -21   1  13   -8.22    3.57
 -21   1  13   -2.95    4.34
  21   1 -13    3.46    2.94
  21   1 -13   -1.04    4.19
  19  -1 -13   22.12    5.03
  19  -1 -13   30.27    5.75
  19  -1 -13   24.94    3.59
 -19  -1  13   25.12    4.93
 -19   1  13   29.37    5.68
  19   1 -13   27.82    3.12
 -19   1  13   35.09    5.62
  19   1 -13   26.30    4.96
  17  -1 -13    7.02    3.32
  17  -1 -13   13.61    2.47
 -17  -1  13   15.34    4.01
 -17  -1  13   14.49    3.98
  17  -1 -13   13.39    3.94
 -17   1  13   19.09    4.22
 -17   1  13    8.30    3.83
 -15  -1  13    3.02    2.57
 -15  -1  13   -3.55    2.61
 -15  -1  13    1.00    2.75
 -15  -1  13    1.34    2.64
 -15   1  13   -3.57    2.49
 -15   1  13    0.28    2.74
 -15   1  13    0.81    2.96
 -13  -1  13    1.35    2.46
  13  -1 -13   12.08    2.91
 -13  -1  13    9.77    2.98
  13  -1 -13    5.68    1.63
 -13  -1  13   13.74    3.00
 -13  -1  13    5.76    2.99
 -13   1  13   10.15    2.99
 -13   1  13    2.26    2.73
 -13   1  13   13.83    3.42
 -11  -1  13   -0.99    2.02
 -11  -1  13    3.76    2.55
  11  -1 -13    2.08    1.54
 -11  -1  13    2.46    2.18
  11  -1 -13   -0.37    2.16
 -11  -1  13    0.28    2.05
 -11   1  13    4.52    2.53
 -11   1  13    2.59    2.52
   9  -1 -13   93.98    5.50
   9  -1 -13  104.70    6.32
  -9  -1  13   87.05    6.28
  -9  -1  13  102.53    6.32
  -9  -1  13  110.12    5.88
   9   1 -13   98.04    5.14
   9   1 -13   93.05    5.03
  -9   1  13   95.94    6.14
   9   1 -13   97.95    5.91
  -9   1  13   96.10    6.26
  -7  -1  13   73.36    4.37
   7  -1 -13   65.44    5.34
  -7  -1  13   75.46    5.62
  -7  -1  13   53.99    5.11
   7  -1 -13   55.09    4.90
   7   1 -13   68.25    4.65
  -7   1  13   55.19    5.04
   7   1 -13   56.62    4.61
  -7   1  13   63.61    4.75
  -5  -1  13   72.59    5.61
   5  -1 -13   76.47    5.71
   5  -1 -13   72.61    5.84
  -5  -1  13   68.83    4.48
  -5   1  13   69.67    4.94
   5   1 -13   76.00    5.61
  -5   1  13   69.23    5.63
   5   1 -13   76.74    4.92
   5   1 -13   73.24    5.88
   3  -1 -13   69.79    5.85
  -3  -1  13   73.91    5.38
  -3  -1  13   73.33    5.32
   3  -1 -13   70.04    6.26
   3   1 -13   70.07    4.91
  -3   1  13   73.57    5.75
   3   1 -13   68.24    5.72
   3   1 -13   83.55    6.21
  -3   1  13   68.59    4.88
   1  -1 -13   98.44    6.49
  -1  -1  13   81.70    5.92
   1  -1 -13  101.23    7.54
  -1   1  13   83.71    5.94
  -1   1  13   89.67    5.62
   1   1 -13   94.58    6.34
   1   1 -13   90.88    5.58
   1   1 -13   96.18    7.22
  -1  -1 -13   16.19    4.37
   1  -1  13   11.02    2.98
  -1  -1 -13    4.74    2.83
  -1   1 -13   14.59    4.35
   1   1  13    7.30    2.55
  -1   1 -13   12.00    3.13
   1   1  13   11.65    2.67
  -1   1 -13   14.20    2.85
   3  -1  13    7.65    2.82
  -3  -1 -13    7.36    2.92
  -3  -1 -13    8.39    4.34
   3   1  13   13.33    3.13
  -3   1 -13   14.31    3.26
  -3   1 -13   13.95    4.61
   3   1  13    3.38    2.32
  -3   1 -13    6.28    2.81
   5  -1  13   78.18    6.70
  -5  -1 -13   93.25    7.55
  -5   1 -13   98.85    7.22
   5   1  13  103.65    7.17
  -5   1 -13   92.35    6.77
   5   1  13   97.89    6.64
  -5   1 -13  101.06   10.32
  -7  -1 -13    0.21    3.18
   7  -1  13    0.31    2.61
   7   1  13   -4.84    2.74
  -7   1 -13    0.03    3.10
   7   1  13    0.25    2.65
  -7   1 -13   -0.97    2.47
  -9  -1 -13   11.08    4.28
   9  -1  13    9.18    3.54
   9   1  13   16.98    4.43
  -9   1 -13   14.96    4.13
  11   1  13   12.84    4.73
 -11   1 -13   15.23    4.74
  13   1  13    9.11    5.61
 -13   1 -13   16.50    5.05
 -22  -2  13    4.67    4.45
  22  -2 -13    2.94    3.76
  22   2 -13    8.93    5.21
 -22   2  13    7.48    5.51
  22   2 -13   11.98    3.87
  20  -2 -13   12.41    5.34
  20  -2 -13   16.50    3.83
 -20  -2  13   20.74    5.15
  20  -2 -13   20.41    5.22
  20   2 -13   17.01    4.90
 -20   2  13   13.42    4.99
  20   2 -13   10.54    3.14
  18  -2 -13   -5.46    3.02
 -18  -2  13    0.28    3.38
  18  -2 -13    0.98    2.69
  18  -2 -13    0.62    3.43
 -18   2  13   -1.12    3.67
  18   2 -13   -0.69    2.89
  18   2 -13    0.18    1.80
  16  -2 -13   19.51    4.21
  16  -2 -13   14.54    4.01
 -16  -2  13   15.24    4.17
 -16  -2  13   27.05    4.81
  16  -2 -13   15.72    3.10
 -16   2  13   20.52    4.40
  16   2 -13   26.02    4.29
  16   2 -13   18.22    1.78
 -14  -2  13   13.92    3.43
 -14  -2  13   14.95    3.16
 -14  -2  13    8.12    3.20
 -14  -2  13    9.57    3.34
 -14   2  13   10.82    3.49
 -14   2  13    4.92    3.10
 -12  -2  13  103.10    6.48
 -12  -2  13  104.69    6.82
  12  -2 -13   76.70    5.91
  12  -2 -13   90.21    5.71
 -12  -2  13   92.16    6.72
 -12  -2  13   94.26    6.34
 -12   2  13  104.10    6.94
  12   2 -13   92.75    4.37
  12   2 -13   99.52    6.85
  12   2 -13   95.09    4.40
 -12   2  13   98.36    6.82
 -10  -2  13   53.23    4.66
  10  -2 -13   49.84    4.76
  10  -2 -13   42.33    4.15
 -10  -2  13   44.50    4.93
  10   2 -13   38.29    4.38
  10   2 -13   39.47    3.39
 -10   2  13   52.73    4.95
 -10   2  13   52.00    5.03
  -8  -2  13  113.52    6.61
   8  -2 -13  113.36    6.77
   8  -2 -13  105.89    6.75
  -8  -2  13  109.54    7.02
   8   2 -13  105.84    6.36
  -8   2  13  125.37    7.16
   8   2 -13  107.00    6.44
  -8   2  13  116.21    6.74
   6  -2 -13   27.42    3.69
  -6  -2  13   28.22    3.68
  -6  -2  13   34.85    4.25
   6  -2 -13   22.75    3.83
  -6   2  13   30.76    3.88
  -6   2  13   30.26    3.62
   6   2 -13   25.28    3.47
   6   2 -13   30.78    3.89
  -4  -2  13   22.30    3.27
   4  -2 -13   25.50    3.76
   4  -2 -13   23.80    4.12
  -4  -2  13   24.26    3.70
   4   2 -13   22.20    3.30
   4   2 -13   21.44    3.75
  -4   2  13   18.51    3.20
  -4   2  13   29.44    3.53
   2  -2 -13   15.29    3.39
   2  -2 -13   20.10    4.12
  -2  -2  13   21.86    3.35
  -2   2  13   20.04    3.20
   2   2 -13   22.66    4.19
   2   2 -13   18.14    3.22
   2   2 -13   21.08    3.54
  -2   2  13   17.90    3.08
   0  -2 -13   10.11    3.03
   0  -2  13   13.20    3.07
   0  -2 -13    7.91    3.83
   0   2 -13   11.07    2.94
   0   2  13   11.14    2.85
   0   2 -13   11.15    4.37
   0   2 -13   11.91    3.03
   0   2  13    8.93    2.74
   2  -2  13    6.02    2.73
  -2  -2 -13   11.16    3.27
  -2  -2 -13    4.18    4.41
  -2   2 -13   11.04    3.04
  -2   2 -13   12.95    4.45
   2   2  13   14.35    2.96
   2   2  13   14.33    3.14
  -2   2 -13   10.56    3.07
   4  -2  13   18.17    3.70
  -4  -2 -13   20.23    4.25
  -4  -2 -13   20.42    6.02
  -4   2 -13   30.49    5.97
   4   2  13   28.94    3.89
  -4   2 -13   30.74    4.35
  -4   2 -13   23.29    4.01
   4   2  13   28.23    4.23
   6  -2  13    9.25    3.23
  -6  -2 -13   14.80    4.18
  -6   2 -13    2.84    2.84
   6   2  13    1.12    2.94
  -6   2 -13    8.41    3.26
   6   2  13    3.92    3.18
  -8  -2 -13    6.51    3.86
   8  -2  13    5.92    3.29
  -8   2 -13    5.75    3.57
   8   2  13   10.78    3.99
  10  -2  13   -1.22    3.28
 -10  -2 -13    0.74    3.84
 -10   2 -13    9.45    3.97
  10   2  13    2.72    4.05
  12  -2  13    6.42    4.91
  12   2  13   -6.55    4.24
 -12   2 -13    8.00    4.65
 -21  -3  13    5.14    4.70
  21  -3 -13    8.15    4.78
  21  -3 -13    2.65    3.59
  21  -3 -13    7.31    5.35
 -21   3  13    3.30    4.88
  21   3 -13    0.22    3.33
  19  -3 -13   13.46    4.50
  19  -3 -13   19.49    4.32
  19  -3 -13   15.99    5.12
 -19  -3  13   16.24    4.78
  19   3 -13   13.79    3.43
 -19   3  13   18.91    5.41
  17  -3 -13    7.70    3.98
  17  -3 -13   12.77    3.65
  17  -3 -13   13.97    4.11
 -17  -3  13   10.41    4.23
 -17  -3  13   12.11    4.23
  17   3 -13   15.41    2.87
 -17   3  13   10.09    4.18
 -15  -3  13   -0.44    2.94
  15  -3 -13   -0.46    2.85
  15  -3 -13    2.44    2.61
  15  -3 -13    3.01    3.22
 -15  -3  13    0.60    3.93
  15   3 -13    0.84    1.94
 -15   3  13    0.22    3.05
 -13  -3  13   -0.11    2.65
  13  -3 -13    4.94    3.22
 -13  -3  13   -3.15    3.08
  13  -3 -13    2.16    2.91
  13  -3 -13   -0.35    2.37
  13   3 -13    2.78    1.92
  13   3 -13    2.19    2.97
 -13   3  13    2.93    3.00
 -11  -3  13   11.52    2.93
  11  -3 -13   16.88    3.29
  11  -3 -13   11.84    3.01
 -11  -3  13    8.76    3.35
 -11   3  13   19.48    3.80
 -11   3  13   12.43    3.42
  11   3 -13    9.72    3.30
  11   3 -13   13.41    2.72
  -9  -3  13   42.03    4.94
   9  -3 -13   49.46    4.87
   9  -3 -13   45.26    5.08
  -9  -3  13   50.99    4.66
   9   3 -13   44.19    4.51
  -9   3  13   51.94    5.24
   9   3 -13   35.06    4.54
  -9   3  13   49.88    5.04
  -7  -3  13   79.90    6.61
  -7  -3  13   82.24    5.62
   7  -3 -13   78.02    6.19
   7  -3 -13   82.45    6.71
   7   3 -13   69.88    5.96
  -7   3  13   84.95    6.03
  -7   3  13   82.44    6.18
   7   3 -13   78.08    6.43
  -5  -3  13  134.32    7.61
   5  -3 -13  140.41    8.73
  -5  -3  13  128.72    7.92
   5  -3 -13  138.12    8.00
   5   3 -13  151.84    8.68
   5   3 -13  144.61    8.08
  -5   3  13  135.80    7.81
  -5   3  13  133.28    7.70
  -3  -3  13  195.24   10.05
   3  -3 -13  186.33    9.96
   3  -3 -13  194.70   10.91
  -3  -3  13  193.69    9.71
   3   3 -13  205.25   10.94
  -3   3  13  172.42    9.38
  -3   3  13  200.84    9.85
   3   3 -13  202.51   10.06
  -1  -3  13   11.27    3.00
   1  -3 -13   15.64    3.52
   1  -3 -13    9.31    3.98
  -1  -3  13   21.70    3.61
  -1   3  13   21.02    3.44
  -1   3  13   11.11    2.75
   1   3 -13   16.89    3.42
   1   3 -13   16.76    4.65
  -1  -3 -13    7.76    3.19
  -1  -3 -13    0.87    3.91
   1  -3  13    3.34    2.66
   1   3  13   -0.31    2.07
  -1   3 -13    0.75    2.65
   1   3  13    4.56    2.67
  -1   3 -13    7.08    2.93
  -1   3 -13    5.32    3.95
  -3  -3 -13   17.80    5.46
   3  -3  13   14.83    3.68
  -3  -3 -13   15.43    3.93
  -3   3 -13   17.85    3.83
   3   3  13   19.58    3.77
  -3   3 -13   22.38    3.81
   3   3  13   16.42    3.23
  -3   3 -13   20.35    5.28
  -5  -3 -13   78.24    7.67
   5  -3  13   75.97    6.93
  -5   3 -13   74.79    6.69
  -5   3 -13   78.57    6.61
   5   3  13   73.05    6.93
  -7  -3 -13   -4.99    3.57
   7  -3  13   -0.69    3.05
   7   3  13   -6.00    3.43
  -7   3 -13    2.13    3.35
   9  -3  13    0.50    3.47
  -9  -3 -13   -1.90    3.95
   9   3  13    0.29    3.95
  -9   3 -13    2.37    3.84
  11  -3  13    5.91    4.19
 -11  -3 -13   13.57    5.24
  11   3  13    4.12    5.05
 -11   3 -13    5.16    4.40
  20  -4 -13    0.72    3.68
  20  -4 -13    3.51    4.75
 -20  -4  13    5.52    4.97
  20  -4 -13    4.20    4.55
  20   4 -13    2.84    3.30
 -20   4  13   -0.26    4.33
  18  -4 -13   11.52    4.13
 -18  -4  13    6.71    4.25
 -18  -4  13    9.57    4.74
  18  -4 -13   12.27    5.26
  18  -4 -13   12.44    4.72
 -18   4  13    6.10    4.41
  18   4 -13   10.23    3.54
 -16  -4  13   19.70    4.70
  16  -4 -13   13.14    4.34
  16  -4 -13   17.54    4.69
  16  -4 -13   12.48    4.10
 -16  -4  13   14.95    4.71
  16   4 -13    8.14    3.24
 -16   4  13   15.07    4.50
  14  -4 -13   46.15    6.16
 -14  -4  13   51.12    6.31
  14  -4 -13   57.83    6.30
  14  -4 -13   53.97    5.85
  14   4 -13   44.33    5.88
 -14   4  13   45.59    5.95
  14   4 -13   58.93    5.32
  12  -4 -13    1.35    3.05
  12  -4 -13    5.35    3.19
  12  -4 -13    2.77    2.93
 -12  -4  13    3.91    3.33
  12   4 -13    6.61    2.91
 -12   4  13   -0.07    2.79
  12   4 -13    2.47    3.04
  10  -4 -13   39.64    5.47
 -10  -4  13   48.85    4.87
  10  -4 -13   43.82    4.75
 -10  -4  13   29.55    4.80
  10   4 -13   43.45    4.81
 -10   4  13   38.21    4.98
 -10   4  13   41.74    5.07
  10   4 -13   37.00    4.79
  -8  -4  13    7.01    2.65
   8  -4 -13    6.16    2.93
  -8  -4  13    5.07    3.25
   8  -4 -13    1.16    3.16
  -8   4  13    9.89    3.28
   8   4 -13   -1.02    2.80
   8   4 -13    5.56    3.22
  -8   4  13    7.38    2.88
  -6  -4  13   -0.57    2.04
   6  -4 -13    3.23    3.34
  -6  -4  13    2.39    2.63
   6  -4 -13    1.93    2.53
   6   4 -13   -1.91    2.57
   6   4 -13   -0.25    3.18
  -6   4  13    2.53    2.51
  -6   4  13   -3.32    2.19
   4  -4 -13   75.26    6.41
  -4  -4  13   55.60    5.67
   4  -4 -13   82.24    7.76
  -4  -4  13   73.64    6.00
   4   4 -13   62.49    6.71
  -4   4  13   70.48    5.97
   4   4 -13   63.17    6.19
  -4   4  13   57.09    5.40
   2  -4 -13    8.25    4.26
  -2  -4  13    8.14    3.11
   2  -4 -13   19.29    3.72
  -2  -4  13    7.31    2.94
  -2   4  13    9.79    3.16
  -2   4  13    3.60    2.31
   2   4 -13    9.19    3.10
   2   4 -13   10.98    4.36
   0  -4 -13    2.63    2.72
   0  -4  13    5.48    2.96
   0  -4 -13   13.24    4.81
   0  -4  13   10.34    3.17
   0   4 -13    8.28    3.38
   0   4 -13   12.13    4.88
   0   4  13    3.83    2.33
   0   4  13    9.78    3.29
   2  -4  13   19.24    3.87
  -2  -4 -13   20.48    4.55
  -2  -4 -13   17.93    5.67
   2   4  13   18.89    3.35
   2   4  13   31.28    4.70
  -2   4 -13   22.08    4.18
  -2   4 -13   29.30    6.12
  -2   4 -13   34.01    4.63
   4  -4  13    3.42    3.29
  -4  -4 -13    9.86    4.03
  -4   4 -13    3.40    5.61
  -4   4 -13    3.11    3.28
   4   4  13    7.69    3.43
  -4   4 -13    2.23    3.03
   6  -4  13    3.14    3.32
  -6  -4 -13   -1.98    3.82
  -6   4 -13    2.24    3.28
   6   4  13   -0.20    3.16
   8  -4  13    2.92    3.54
  -8  -4 -13   -0.23    3.99
   8   4  13    8.68    4.46
  -8   4 -13    8.48    3.99
  10  -4  13   12.03    4.70
 -10  -4 -13    4.57    4.82
 -10   4 -13    9.84    4.78
  10   4  13    2.01    4.80
  19  -5 -13   -3.96    4.08
 -19  -5  13    2.67    4.55
 -19  -5  13    4.73    4.77
  19  -5 -13    1.34    4.03
  19  -5 -13    3.24    4.15
  19   5 -13   10.18    4.36
 -19   5  13    0.15    4.59
 -17  -5  13    8.25    4.43
  17  -5 -13   25.88    5.20
  17  -5 -13   20.04    4.81
  17  -5 -13   12.93    5.14
  17   5 -13   19.31    4.66
 -17   5  13    6.74    4.42
  17   5 -13   16.92    4.99
  15  -5 -13    4.09    3.47
  15  -5 -13    8.19    4.14
  15  -5 -13    5.81    3.88
 -15  -5  13    7.99    4.37
 -15   5  13   10.17    4.35
  15   5 -13    7.74    3.61
  15   5 -13   14.43    4.57
  13  -5 -13   30.83    5.20
 -13  -5  13   38.38    5.81
  13  -5 -13   26.96    4.81
  13  -5 -13   45.11    6.15
 -13   5  13   34.17    5.30
  13   5 -13   35.78    5.60
  13   5 -13   31.70    5.16
  11  -5 -13   33.33    5.52
  11  -5 -13   31.05    5.72
 -11  -5  13   26.90    4.96
  11  -5 -13   34.49    5.25
 -11   5  13   23.07    4.62
  11   5 -13   28.48    4.80
  11   5 -13   35.73    5.29
   9  -5 -13  107.39    7.28
  -9  -5  13  110.00    6.85
   9  -5 -13   87.14    8.30
  -9  -5  13  105.47    8.63
   9  -5 -13  109.73    8.52
   9  -5 -13  108.31    9.35
   9   5 -13   96.39    8.32
   9   5 -13   98.87    8.02
  -9   5  13   98.41    8.25
  -7  -5  13  391.01   18.21
   7  -5 -13  413.60   17.46
  -7  -5  13  413.68   17.25
   7  -5 -13  397.98   19.04
  -7   5  13  393.52   17.62
   7   5 -13  413.52   19.04
  -7   5  13  375.40   17.68
   7   5 -13  418.33   18.30
  -5  -5  13   48.55    5.08
   5  -5 -13   49.02    5.47
  -5  -5  13   46.13    5.59
   5  -5 -13   42.30    6.20
  -5   5  13   40.49    4.83
  -5   5  13   43.77    5.43
   5   5 -13   45.20    5.45
   5   5 -13   35.65    6.02
   3  -5 -13   31.66    4.59
   3  -5 -13   43.64    6.45
  -3  -5  13   31.16    4.54
  -3  -5  13   27.67    4.24
  -3   5  13   19.87    4.06
   3   5 -13   29.84    5.81
   3   5 -13   36.65    5.24
  -3   5  13   36.18    4.37
   1  -5 -13    1.30    4.82
   1  -5 -13    6.68    3.39
  -1  -5  13    3.80    3.05
  -1  -5  13    7.96    2.99
  -1   5  13    3.54    2.70
  -1   5  13    5.09    3.10
   1   5 -13    4.98    3.48
   1   5 -13    1.10    4.59
  -1  -5 -13    1.26    3.10
   1  -5  13   -1.21    2.82
   1  -5  13   -0.25    2.70
  -1  -5 -13   -1.57    4.92
  -1   5 -13   -1.63    4.56
   1   5  13    0.73    2.53
  -1   5 -13    3.64    3.18
   1   5  13   -0.94    3.02
  -3  -5 -13   14.77    4.49
   3  -5  13   16.75    4.12
   3   5  13   17.87    4.36
  -3   5 -13   31.00    4.82
  -3   5 -13   20.19    4.40
  -3   5 -13   16.94    6.53
  -5  -5 -13    3.41    3.92
   5  -5  13    8.58    4.00
   5   5  13    3.16    3.88
  -5   5 -13    5.33    3.81
   7  -5  13    2.10    3.56
  -7  -5 -13    7.01    4.40
  -7   5 -13    2.02    3.88
   7   5  13    5.15    4.10
  -9  -5 -13   43.44    7.21
   9  -5  13   33.19    6.17
  -9   5 -13   41.53    6.65
   9   5  13   28.13    6.23
 -18  -6  13   21.31    6.42
  18  -6 -13   17.42    6.32
  18  -6 -13   14.62    5.80
  18  -6 -13   10.78    4.89
  18   6 -13   11.74    5.28
  18   6 -13   18.93    5.62
 -18   6  13   19.70    5.95
 -16  -6  13    2.52    5.32
  16  -6 -13   -0.78    3.39
  16  -6 -13    1.28    3.87
  16  -6 -13    2.16    5.07
  16   6 -13    3.04    4.04
  16   6 -13   -0.58    4.28
 -16   6  13   -0.46    3.78
  14  -6 -13   19.97    4.56
  14  -6 -13   -2.54    4.76
  14  -6 -13   14.98    4.90
 -14  -6  13   13.40    5.30
  14   6 -13   15.41    4.79
  14   6 -13   12.17    5.05
 -14   6  13   13.39    4.48
  12  -6 -13   66.60    7.28
  12  -6 -13   72.92    8.55
  12  -6 -13   64.59    7.65
 -12  -6  13   76.43    8.05
  12   6 -13   60.17    7.23
 -12   6  13   58.56    6.83
  12   6 -13   53.93    7.00
  10  -6 -13   -4.67    2.98
  10  -6 -13    1.48    3.30
  10  -6 -13   -1.13    4.25
 -10  -6  13    3.80    3.41
  10   6 -13   -1.41    3.39
  10   6 -13    9.11    4.22
 -10   6  13   -0.26    3.10
  -8  -6  13   50.91    6.27
   8  -6 -13   47.70    6.52
   8  -6 -13   57.29    6.14
   8  -6 -13   50.42    6.21
  -8  -6  13   57.47    5.53
   8  -6 -13   55.34    7.99
   8   6 -13   53.06    6.28
  -8   6  13   54.30    6.26
   8   6 -13   53.64    7.04
   6  -6 -13   -4.68    4.34
   6  -6 -13   -0.21    3.34
  -6  -6  13    3.70    2.98
   6  -6 -13    1.28    3.14
  -6  -6  13    1.54    3.07
   6  -6 -13    2.60    2.87
   6   6 -13   -1.74    4.36
  -6   6  13    1.12    3.07
   6   6 -13    2.55    3.40
  -4  -6  13    5.52    3.03
  -4  -6  13    2.89    3.15
   4  -6 -13    5.40    3.35
   4   6 -13    1.43    3.58
  -4   6  13    4.46    3.20
  -4   6  13    2.91    2.67
   4   6 -13   -1.98    4.42
   2  -6 -13   20.69    6.09
  -2  -6  13   16.44    3.91
  -2  -6  13   12.27    3.69
   2  -6 -13   17.39    4.16
  -2   6  13    5.75    3.43
   2   6 -13   19.99    6.36
   2   6 -13    7.81    3.95
  -2   6  13   17.85    3.61
   0  -6 -13   17.26    8.01
   0  -6 -13    8.52    3.46
   0  -6  13    6.73    3.85
   0  -6  13    9.92    3.43
   0   6 -13    9.50    4.12
   0   6  13    2.74    3.54
   0   6 -13   17.20    5.97
   0   6  13    9.52    3.78
  -2  -6 -13   30.83    5.47
   2  -6  13   35.02    5.68
   2  -6  13   33.03    5.30
   2   6  13   28.67    5.35
  -2   6 -13   37.97    8.15
  -2   6 -13   18.75    4.88
   4  -6  13    9.17    4.17
  -4  -6 -13    6.75    4.35
   4   6  13    2.34    3.93
  -4   6 -13   -1.73    3.26
  -6  -6 -13    1.69    4.42
   6  -6  13    1.04    3.69
  -6   6 -13    2.07    4.28
   6   6  13    5.93    4.35
  -8  -6 -13    4.96    4.86
   8  -6  13    4.20    4.27
   8   6  13    7.57    4.84
  -8   6 -13   12.02    4.83
 -15  -7  13   45.30    7.44
  15  -7 -13   34.76    6.62
  15  -7 -13   32.17    6.15
  15  -7 -13   44.66    7.87
  15   7 -13   41.03    7.10
 -15   7  13   39.60    6.33
  15   7 -13   39.34    6.80
  13  -7 -13   67.34    8.41
  13  -7 -13   56.65    7.10
  13  -7 -13   42.68    8.15
 -13  -7  13   54.06    7.88
  13   7 -13   64.05    8.49
  13   7 -13   72.36    8.18
 -13   7  13   64.41    7.38
  11  -7 -13   44.98    7.94
  11  -7 -13   30.14    6.06
  11  -7 -13   29.76    5.65
 -11  -7  13   19.02    5.12
  11   7 -13   29.42    5.93
 -11   7  13   26.74    5.16
  11   7 -13   27.94    6.54
   9  -7 -13   43.67    6.56
   9  -7 -13   31.66    7.61
   9  -7 -13   38.89    5.86
  -9  -7  13   51.64    6.71
   9   7 -13   43.26    6.02
  -9   7  13   42.39    6.22
   9   7 -13   52.23    7.92
   7  -7 -13  111.66   11.16
  -7  -7  13  105.72    9.26
   7  -7 -13  123.06    9.25
   7  -7 -13  119.82    8.71
  -7  -7  13  106.62    8.46
   7  -7 -13  112.09    9.64
   7   7 -13   99.81    9.13
   7   7 -13   95.98   10.39
  -7   7  13   97.91    8.72
  -5  -7  13    9.00    4.16
   5  -7 -13   14.55    4.40
   5  -7 -13    9.19    6.40
   5  -7 -13    9.58    4.33
  -5  -7  13    7.60    3.42
   5  -7 -13    9.51    4.00
  -5   7  13   10.73    3.88
   5   7 -13   13.13    5.54
   5   7 -13    6.22    4.17
   3  -7 -13    5.61    3.96
   3  -7 -13   -0.65    3.18
  -3  -7  13    5.31    3.42
   3  -7 -13    5.50    3.78
  -3  -7  13    6.04    3.53
   3  -7 -13   -1.10    5.56
   3   7 -13    5.72    4.03
  -3   7  13   -1.62    3.16
   3   7 -13    5.58    5.56
   1  -7 -13   17.84    4.54
  -1  -7  13   14.86    4.12
  -1  -7  13   17.59    4.31
   1   7 -13   10.27    4.49
  -1   7  13   14.47    4.58
   1   7 -13   16.82    6.40
   1  -7  13   11.22    4.51
   1  -7  13   12.82    4.39
  -1  -7 -13   14.00    4.33
   1   7  13    9.68    4.39
  -1   7 -13    7.44    4.46
  -1   7 -13    4.85    7.32
   3  -7  13    1.55    4.32
  -3  -7 -13   -4.12    3.28
   3   7  13    4.93    4.21
  -3   7 -13    3.12    3.99
  -5  -7 -13   14.38    5.25
   5  -7  13    4.57    4.68
  -5   7 -13    6.31    3.93
   5   7  13    2.87    4.50
   7  -7  13   -0.44    4.17
  -7  -7 -13   -0.07    5.22
   7   7  13   -3.60    4.23
  -7   7 -13    0.12    4.20
 -14  -8  13    5.98    5.39
  14  -8 -13    3.58    4.88
  14  -8 -13    0.97    5.48
  14  -8 -13    2.24    6.77
 -14   8  13    3.46    4.07
  14   8 -13    9.58    4.88
  14   8 -13   -6.32    5.67
  12  -8 -13   -0.01    4.10
  12  -8 -13    8.68    5.13
 -12  -8  13    5.12    4.43
  12  -8 -13    4.47    6.76
 -12   8  13    5.05    3.92
  12   8 -13   10.55    5.24
  12   8 -13   -2.14    5.90
  10  -8 -13   -2.24    5.59
  10  -8 -13   -2.94    4.94
  10  -8 -13    1.30    4.19
 -10  -8  13    2.34    3.97
  10   8 -13   -4.59    3.48
  10   8 -13   -7.09    5.49
 -10   8  13   -2.35    3.22
  -8  -8  13   -7.07    3.35
   8  -8 -13    5.03    6.17
   8  -8 -13    7.49    4.52
   8  -8 -13   -3.52    4.76
   8   8 -13    0.60    4.15
  -8   8  13   -3.81    3.10
   8   8 -13    4.40    6.17
   6  -8 -13   35.10    8.31
   6  -8 -13   40.88    6.47
  -6  -8  13   26.04    5.78
   6  -8 -13   30.58    5.66
   6  -8 -13   25.91    6.02
   6   8 -13   26.07    5.84
   6   8 -13   26.01    7.10
  -6   8  13   24.56    5.15
   4  -8 -13   28.98    5.65
  -4  -8  13   25.45    4.84
   4  -8 -13   21.96    5.78
   4  -8 -13   17.50    8.15
   4  -8 -13   22.41    5.14
  -4  -8  13   17.34    4.80
   4   8 -13   10.14    6.66
  -4   8  13   26.33    5.15
   4   8 -13   18.27    5.43
  -2  -8  13   27.72    5.26
  -2  -8  13   21.69    4.68
   2  -8 -13   25.60    5.51
   2   8 -13   29.80    8.77
  -2   8  13   31.10    5.51
   2   8 -13   18.66    5.45
   0  -8 -13   10.45    4.46
   0  -8  13    1.82    5.57
   0  -8  13    4.43    3.86
   0   8 -13    2.04    4.00
   0   8  13    3.18    3.85
  -2  -8 -13    7.45    4.97
   2  -8  13   -2.36    4.26
  -2   8 -13   -2.56    3.85
   2   8  13   -3.49    4.01
  -4  -8 -13   -4.41    3.34
   4  -8  13    3.71    4.68
  -4   8 -13    2.09    4.33
   4   8  13    0.36    4.84
   9  -9 -13   -6.06    4.04
  -9  -9  13   -2.30    4.26
   9  -9 -13    5.44    8.29
   9  -9 -13   -6.45    4.98
   9   9 -13   10.27    5.29
  -9   9  13   -2.46    4.02
   9   9 -13   -3.36    6.58
   7  -9 -13    8.63   11.88
   7  -9 -13   11.36    6.10
  -7  -9  13    9.41    4.79
   7  -9 -13   21.23    5.66
   7   9 -13    4.17    7.00
  -7   9  13    4.07    4.31
   7   9 -13    8.91    5.41
   5  -9 -13    3.05    5.67
   5  -9 -13    5.31    6.50
  -5  -9  13   12.91    5.43
   5  -9 -13   11.24    8.15
   5   9 -13    6.99    5.04
   5   9 -13    9.54    7.74
  -5   9  13   10.03    4.72
  -3  -9  13    8.90    4.44
  -3  -9  13    6.32    4.74
   3  -9 -13   13.87    5.34
   3   9 -13    9.61    4.74
   3   9 -13    9.20    8.21
  -3   9  13    3.50    4.32
  -1  -9  13   15.49    5.49
   1  -9 -13    9.37    4.63
  -1   9  13    9.90    4.53
   1   9 -13   10.06    5.07
  -1  -9 -13   -0.13    4.42
   1  -9  13    1.34    4.48
  -1   9 -13   10.00    5.08
   1   9  13    0.80    3.79
  22   0 -14  -11.68    4.02
 -22   0  14   -0.13    4.81
  22   0 -14   -3.39    2.77
  20   0 -14   20.93    3.07
 -20   0  14   23.39    5.43
 -20   0  14   25.26    5.24
  18   0 -14   26.14    5.54
 -18   0  14   22.51    5.15
  18   0 -14   17.87    4.72
  18   0 -14   24.24    2.35
 -18   0  14   19.54    4.58
 -16   0  14    2.16    3.18
 -16   0  14    3.34    3.03
 -16   0  14   11.69    3.48
 -14   0  14   61.34    6.00
 -14   0  14   55.62    5.59
 -14   0  14   69.10    5.84
 -14   0  14   68.19    6.07
 -12   0  14   18.67    3.37
  12   0 -14    8.05    1.42
  12   0 -14    6.58    1.56
 -12   0  14    9.72    2.88
 -12   0  14   10.69    3.06
 -12   0  14   20.37    3.53
  10   0 -14  381.78   15.45
  10   0 -14  402.99   17.13
  10   0 -14  403.53   17.93
 -10   0  14  404.96   16.56
 -10   0  14  421.02   17.10
   8   0 -14  186.31    9.77
   8   0 -14  169.01    8.67
  -8   0  14  204.25    9.60
  -8   0  14  194.99    8.97
   6   0 -14   12.17    2.94
   6   0 -14    8.66    2.81
  -6   0  14   15.86    3.06
  -6   0  14   10.28    2.39
   4   0 -14  252.41   12.32
  -4   0  14  245.65   11.80
  -4   0  14  263.49   11.02
   4   0 -14  261.10   12.08
  -2   0  14  288.45   11.93
   2   0 -14  289.14   13.96
  -2   0  14  280.57   12.84
   2   0 -14  269.45   12.94
   0   0  14  101.67    6.12
   0   0  14   69.26    6.15
   0   0 -14  108.43    6.99
   0   0 -14  115.66    8.50
   2   0  14   57.13    4.99
  -2   0 -14   60.83    5.84
  -2   0 -14   67.36    7.96
   2   0  14   44.29    4.90
  -4   0 -14    2.78    3.04
   4   0  14    6.21    3.12
  -4   0 -14   -0.56    4.63
   4   0  14    3.35    2.45
  -6   0 -14   17.33    4.50
   6   0  14   28.72    5.83
   6   0  14   10.96    3.30
   8   0  14   12.74    3.85
  -8   0 -14   11.75    4.49
  21  -1 -14   10.10    3.43
 -21  -1  14   11.58    4.66
  21   1 -14   15.00    3.27
  21   1 -14   10.15    4.68
 -21   1  14    7.95    4.82
 -19  -1  14   -0.36    3.57
 -19  -1  14   -2.49    3.66
  19  -1 -14    2.90    3.74
  19  -1 -14    0.58    3.64
  19  -1 -14   -0.68    2.17
 -19   1  14   -0.17    3.86
  19   1 -14    3.30    1.73
  17  -1 -14    9.68    3.59
  17  -1 -14    2.30    3.23
 -17  -1  14    8.40    5.27
 -17  -1  14   -0.29    3.17
  17  -1 -14    9.91    2.13
 -17  -1  14    9.20    3.70
 -17   1  14    8.95    4.05
  15  -1 -14    5.01    1.75
 -15  -1  14    0.49    2.98
 -15  -1  14    5.76    3.23
 -15  -1  14    4.45    3.25
 -15  -1  14    7.19    3.01
 -15   1  14    3.81    2.96
 -15   1  14    6.70    3.41
 -13  -1  14   62.31    5.51
  13  -1 -14   50.69    3.64
  13  -1 -14   50.33    5.20
 -13  -1  14   52.43    5.48
 -13  -1  14   59.66    5.32
 -13  -1  14   59.37    5.35
 -13   1  14   44.67    5.18
 -13   1  14   63.64    5.88
  11  -1 -14   30.09    4.18
  11  -1 -14   35.25    3.23
 -11  -1  14   32.11    4.13
 -11  -1  14   37.24    4.60
 -11  -1  14   31.46    3.94
  11   1 -14   30.48    3.86
  11   1 -14   30.41    3.04
  11   1 -14   31.11    2.69
 -11   1  14   33.39    4.32
 -11   1  14   38.97    4.79
  -9  -1  14   35.30    4.16
   9  -1 -14   36.61    3.79
   9  -1 -14   33.14    4.27
  -9  -1  14   32.06    4.25
  -9  -1  14   39.77    3.99
  -9   1  14   34.69    4.13
   9   1 -14   36.99    3.58
  -9   1  14   44.68    4.37
   9   1 -14   35.42    3.77
   7  -1 -14   71.09    5.79
   7  -1 -14   64.63    5.50
  -7  -1  14   57.84    5.26
  -7  -1  14   65.98    5.73
  -7   1  14   69.26    5.52
   7   1 -14   72.68    5.36
  -7   1  14   68.47    5.03
   7   1 -14   71.51    4.96
   5  -1 -14   59.82    5.54
   5  -1 -14   59.23    5.68
  -5  -1  14   54.24    4.99
  -5   1  14   51.62    5.02
  -5   1  14   57.63    4.73
   5   1 -14   72.28    6.01
   5   1 -14   52.85    5.28
   5   1 -14   66.25    4.95
   3  -1 -14   11.83    3.18
  -3  -1  14    6.34    3.16
   3  -1 -14    9.32    3.34
   3   1 -14   10.12    2.81
   3   1 -14   16.09    3.75
   3   1 -14   12.17    3.19
  -3   1  14    7.56    2.65
  -3   1  14   10.00    2.54
  -1  -1  14   19.20    3.33
   1  -1 -14   23.81    3.86
   1  -1 -14   22.20    4.68
   1   1 -14   21.23    3.67
   1   1 -14   20.20    3.38
   1   1 -14   30.67    4.87
  -1   1  14   27.52    3.57
  -1   1  14   25.95    3.76
  -1  -1 -14    7.44    3.97
  -1  -1 -14    4.10    2.83
   1  -1  14    5.43    2.68
  -1   1 -14    4.61    3.85
   1   1  14    5.57    2.52
  -1   1 -14    3.41    2.63
   1   1  14    4.39    2.36
  -1   1 -14    5.99    2.83
  -3  -1 -14   87.75    7.25
  -3  -1 -14   84.42    8.50
   3  -1  14   69.22    6.33
  -3   1 -14   98.07    7.00
   3   1  14   80.43    6.45
  -3   1 -14   87.39    8.86
  -3   1 -14   88.53    6.44
   3   1  14   88.44    6.47
  -5  -1 -14   13.90    4.11
   5  -1  14   15.74    3.54
  -5   1 -14   19.97    3.85
  -5   1 -14   16.80    4.18
   5   1  14   13.25    3.22
   5   1  14   11.47    3.56
  -7  -1 -14    2.37    3.75
   7  -1  14    4.09    3.09
   7   1  14    3.34    3.09
  -7   1 -14    7.49    3.84
  -7   1 -14    2.15    3.35
   7   1  14    7.70    3.68
   9  -1  14    2.90    3.30
  -9  -1 -14   -1.16    3.78
   9   1  14   -5.14    3.51
  -9   1 -14    2.16    3.73
  11   1  14    4.51    5.03
 -11   1 -14   13.64    4.96
 -20  -2  14   -0.80    4.11
  20  -2 -14   -0.55    2.78
  20  -2 -14    3.88    4.22
  20  -2 -14    4.20    4.51
  20   2 -14    2.20    4.77
  20   2 -14   10.14    2.72
 -20   2  14    4.09    4.62
 -18  -2  14    0.24    3.29
  18  -2 -14   -2.00    3.15
  18  -2 -14   -1.19    2.40
  18  -2 -14   -1.18    2.99
 -18  -2  14    1.11    4.54
  18   2 -14   -1.16    4.23
  18   2 -14    2.66    1.73
 -18   2  14   -0.73    3.79
  16  -2 -14   20.06    4.09
  16  -2 -14   14.20    4.22
  16  -2 -14   20.30    3.25
 -16  -2  14   10.28    3.87
 -16  -2  14   19.76    4.30
 -16   2  14   14.45    4.25
 -14  -2  14   16.08    3.94
 -14  -2  14   16.82    3.56
  14  -2 -14   14.27    2.82
 -14  -2  14   13.23    3.61
 -14   2  14   16.81    3.98
 -14   2  14   14.72    3.87
 -12  -2  14   17.27    3.68
  12  -2 -14   12.69    3.31
 -12  -2  14    8.97    2.93
  12  -2 -14    9.82    2.57
  12   2 -14    6.21    2.89
  12   2 -14   10.68    2.05
 -12   2  14    6.50    2.93
 -12   2  14   12.12    3.40
  10  -2 -14   70.09    5.61
 -10  -2  14   65.54    6.11
 -10  -2  14   78.84    5.93
  10  -2 -14   65.26    5.86
  10   2 -14   71.64    4.96
  10   2 -14   69.30    5.85
 -10   2  14   63.31    5.90
 -10   2  14   75.39    6.20
  -8  -2  14    2.13    2.23
   8  -2 -14    3.06    2.52
  -8  -2  14   -2.60    2.28
   8  -2 -14    3.38    2.44
  -8   2  14   -2.04    2.12
   8   2 -14   -0.50    2.15
  -8   2  14   -3.63    1.86
   8   2 -14    0.41    2.27
  -6  -2  14  107.62    6.80
  -6  -2  14  111.82    7.16
   6  -2 -14  116.54    7.56
   6  -2 -14  110.59    7.10
  -6   2  14  100.04    6.77
   6   2 -14  113.84    7.25
  -6   2  14  116.74    6.90
   6   2 -14  115.26    6.80
   4  -2 -14   76.93    7.04
  -4  -2  14   87.98    6.42
  -4  -2  14   88.21    6.07
   4  -2 -14   85.14    6.29
   4   2 -14   84.37    6.00
  -4   2  14   72.63    6.00
   4   2 -14   95.16    7.10
  -4   2  14   82.63    5.70
  -2  -2  14  103.06    7.00
   2  -2 -14  115.57    8.43
   2  -2 -14  102.26    7.24
  -2   2  14  108.89    6.79
  -2   2  14  123.44    7.07
   2   2 -14  109.50    7.24
   2   2 -14  108.01    6.94
   2   2 -14  108.31    8.21
   0  -2 -14    8.82    3.22
   0  -2 -14   11.14    4.36
   0  -2  14    8.64    2.91
   0   2  14    7.14    2.82
   0   2  14    9.85    2.85
   0   2 -14    8.67    3.02
   0   2 -14   10.84    3.17
   0   2 -14   12.92    4.14
   2  -2  14    5.83    2.93
  -2  -2 -14   12.05    3.55
  -2  -2 -14    9.08    4.68
  -2   2 -14   10.97    3.42
   2   2  14   16.29    3.40
  -2   2 -14    2.33    4.30
   2   2  14    9.98    2.87
  -2   2 -14   10.59    3.41
  -4  -2 -14   47.11    9.06
  -4  -2 -14   44.57    5.89
   4  -2  14   35.00    4.78
  -4   2 -14   52.34    5.68
  -4   2 -14   43.00    5.18
   4   2  14   50.56    5.60
   4   2  14   50.83    5.04
  -4   2 -14   45.15    7.28
   6  -2  14    7.35    3.11
  -6  -2 -14    9.83    4.09
   6   2  14    3.21    3.52
  -6   2 -14   10.70    3.79
   6   2  14    4.06    3.64
  -6   2 -14    0.50    3.40
   8  -2  14    2.46    3.23
  -8  -2 -14    0.76    4.17
   8   2  14    6.26    4.11
  -8   2 -14    1.18    3.55
  10  -2  14    3.13    3.73
 -10  -2 -14   -2.37    4.10
 -10   2 -14    0.97    3.87
  10   2  14    1.89    4.21
 -12   2 -14    9.68    4.81
  12   2  14    7.05    5.35
 -21  -3  14   -8.25    4.21
  21  -3 -14    3.51    4.94
  21  -3 -14   -1.70    4.38
  21  -3 -14    1.68    3.55
 -21   3  14   -4.68    4.40
  21   3 -14    2.99    3.20
 -19  -3  14    3.69    5.06
  19  -3 -14    4.97    4.34
  19  -3 -14    5.38    3.37
  19  -3 -14   -0.01    3.62
 -19  -3  14   -3.45    3.54
  19   3 -14    1.36    2.64
 -19   3  14    5.39    4.70
 -17  -3  14   24.74    5.05
 -17  -3  14   21.31    4.88
  17  -3 -14   19.29    4.32
  17  -3 -14   12.86    4.38
  17  -3 -14   14.71    3.81
  17   3 -14   19.75    3.12
 -17   3  14   20.81    4.94
 -15  -3  14   26.31    4.80
  15  -3 -14   16.18    4.44
 -15  -3  14   33.87    5.33
  15  -3 -14   26.79    4.12
  15  -3 -14   27.93    4.77
  15   3 -14   35.72    5.21
  15   3 -14   27.82    3.29
 -15   3  14   28.04    4.99
 -13  -3  14    4.27    3.30
 -13  -3  14    5.37    2.86
 -13   3  14   -1.84    2.69
  13   3 -14    2.65    2.23
 -13   3  14    9.26    3.46
  13   3 -14    4.13    2.99
 -11  -3  14    2.38    2.50
  11  -3 -14    1.82    2.56
 -11  -3  14    2.51    2.85
  11  -3 -14    2.98    2.77
  11   3 -14    0.08    2.17
  11   3 -14    0.43    2.80
 -11   3  14   -1.64    2.70
 -11   3  14   -2.12    2.55
  -9  -3  14   33.75    4.71
   9  -3 -14   26.01    4.25
   9  -3 -14   28.38    4.17
  -9  -3  14   37.98    4.31
   9   3 -14   35.93    4.52
  -9   3  14   40.44    4.82
   9   3 -14   36.58    4.37
  -9   3  14   31.04    4.31
   7  -3 -14    6.37    3.26
  -7  -3  14    3.32    2.75
  -7  -3  14    8.59    2.69
   7  -3 -14    3.08    2.50
  -7   3  14    6.19    2.95
   7   3 -14    1.81    2.62
   7   3 -14    4.84    3.05
  -7   3  14    6.20    2.80
   5  -3 -14  192.67   10.66
  -5  -3  14  189.63   10.12
   5  -3 -14  192.05   10.01
  -5  -3  14  174.56    9.37
   5   3 -14  174.83    9.73
  -5   3  14  185.09    9.76
   5   3 -14  191.62   10.55
  -5   3  14  192.73    9.83
  -3  -3  14   11.45    3.16
   3  -3 -14    7.61    3.00
   3  -3 -14    7.34    3.93
  -3  -3  14    9.64    3.24
  -3   3  14   10.78    2.99
   3   3 -14    9.62    3.33
   3   3 -14   14.19    4.11
  -3   3  14   11.44    2.96
   1  -3 -14   12.24    3.43
  -1  -3  14   18.47    3.61
   1  -3 -14   12.80    4.51
   1   3 -14   18.01    3.66
  -1   3  14   10.33    2.74
   1   3 -14   19.55    4.76
   1   3 -14   18.39    3.70
  -1   3  14   14.44    3.33
  -1  -3 -14   36.47    5.28
  -1  -3 -14   57.67    7.63
   1  -3  14   43.09    5.10
   1   3  14   42.63    4.98
  -1   3 -14   58.17    7.42
  -1   3 -14   49.71    5.27
   1   3  14   38.98    4.53
  -1   3 -14   42.91    5.15
   3  -3  14   20.75    4.12
  -3  -3 -14   30.32    4.90
  -3  -3 -14   17.42    5.79
   3   3  14   25.56    4.36
  -3   3 -14   14.79    3.72
   3   3  14   25.42    3.84
  -3   3 -14   29.69    4.55
  -3   3 -14   32.32    6.64
  -5  -3 -14    5.92    4.17
   5  -3  14   16.32    4.11
  -5   3 -14   23.33    4.58
  -5   3 -14   20.09    4.53
   5   3  14   14.73    4.18
  -7  -3 -14    4.45    3.88
   7  -3  14   -6.90    2.89
   7   3  14   -1.93    3.44
  -7   3 -14    0.38    3.35
   9  -3  14    3.45    3.84
  -9  -3 -14    4.92    4.87
  -9   3 -14    7.68    4.29
   9   3  14   13.50    5.02
  11  -3  14    0.66    3.92
 -11  -3 -14    4.58    5.40
  11   3  14   -1.56    4.81
 -11   3 -14   -2.46    3.99
 -20  -4  14   -2.90    6.06
  20  -4 -14    6.08    4.16
  20  -4 -14   -1.56    4.15
 -20  -4  14    4.12    4.80
  20  -4 -14   -1.82    3.92
  20   4 -14   -4.07    2.98
 -20   4  14    4.75    4.87
  18  -4 -14    5.45    3.94
 -18  -4  14   -3.58    3.64
  18  -4 -14    7.70    4.46
  18  -4 -14    1.48    3.44
 -18  -4  14   -4.66    3.82
 -18   4  14    2.00    4.23
  18   4 -14    0.57    3.13
  16  -4 -14   26.58    5.45
  16  -4 -14   26.34    5.03
  16  -4 -14   23.85    4.69
 -16  -4  14   17.56    5.02
 -16   4  14   27.50    5.20
  16   4 -14   23.28    4.98
  16   4 -14   27.48    4.08
  14  -4 -14    2.42    3.15
  14  -4 -14    6.12    3.45
  14  -4 -14    2.66    3.36
 -14  -4  14    0.31    3.75
  14   4 -14    1.11    2.60
  14   4 -14   -1.13    3.06
 -14   4  14    1.64    3.37
  12  -4 -14   -2.45    2.78
 -12  -4  14    0.36    3.23
  12  -4 -14   -0.18    2.89
  12  -4 -14    3.07    3.15
 -12  -4  14    0.23    3.29
  12   4 -14   -4.04    2.33
 -12   4  14   -0.14    2.86
  12   4 -14   -3.17    2.78
 -10  -4  14   45.86    6.05
  10  -4 -14   51.87    5.21
 -10  -4  14   48.87    5.29
  10  -4 -14   46.04    5.79
 -10   4  14   55.93    5.83
 -10   4  14   43.87    5.45
  10   4 -14   42.59    5.28
  10   4 -14   45.71    5.22
   8  -4 -14    8.48    3.22
   8  -4 -14   10.09    4.06
  -8  -4  14    9.13    3.52
  -8  -4  14    9.23    3.00
   8   4 -14    9.38    3.36
  -8   4  14   11.93    3.48
  -8   4  14    8.80    3.29
   8   4 -14    9.72    3.63
  -6  -4  14  169.19    9.13
  -6  -4  14  153.98    9.40
   6  -4 -14  169.98    9.29
   6  -4 -14  175.42   10.79
  -6   4  14  156.74    9.05
  -6   4  14  154.47    9.20
   6   4 -14  170.56    9.55
   6   4 -14  169.18   10.36
  -4  -4  14    9.32    3.33
  -4  -4  14   17.27    3.98
   4  -4 -14   20.10    4.87
   4  -4 -14   16.00    3.60
  -4   4  14   23.15    4.01
   4   4 -14   18.36    4.73
   4   4 -14   20.22    4.17
  -4   4  14   17.80    3.60
   2  -4 -14   -3.40    3.35
  -2  -4  14    0.62    2.49
   2  -4 -14    6.80    2.99
  -2  -4  14    1.94    2.36
   2   4 -14    1.99    2.96
  -2   4  14    1.71    2.60
   2   4 -14    1.04    3.89
  -2   4  14    0.44    2.26
   0  -4 -14    1.79    4.26
   0  -4 -14   -5.06    2.42
   0  -4  14    2.96    3.01
   0   4  14   -0.10    2.43
   0   4 -14   -0.84    2.90
   0   4 -14    6.27    4.32
   0   4 -14    4.03    2.76
   0   4  14    0.11    2.67
   2  -4  14    6.27    3.42
  -2  -4 -14    0.03    3.28
  -2  -4 -14   -0.33    4.40
  -2   4 -14    1.01    3.12
   2   4  14    7.34    3.51
  -2   4 -14    2.78    3.16
   2   4  14    1.41    2.58
  -2   4 -14   -0.59    4.32
   4  -4  14   27.86    4.76
  -4  -4 -14   21.60    5.14
   4   4  14   19.24    4.54
  -4   4 -14   29.77    4.90
  -4   4 -14   36.19    5.14
   6  -4  14   20.08    4.61
  -6  -4 -14   18.19    4.91
  -6   4 -14   24.47    5.01
   6   4  14   16.56    4.77
  -8  -4 -14   -3.18    4.18
   8  -4  14    3.48    3.66
  -8   4 -14   -1.32    3.70
   8   4  14    5.99    4.24
  10  -4  14    5.14    4.19
 -10  -4 -14   -2.49    4.59
  10   4  14    3.27    4.56
 -10   4 -14    4.74    4.51
  19  -5 -14    7.08    4.98
  19  -5 -14    2.23    4.17
 -19  -5  14    5.97    5.05
  19  -5 -14    9.66    5.30
  19   5 -14   11.21    4.34
  19   5 -14    5.81    4.60
 -19   5  14    8.88    5.24
 -17  -5  14    6.90    4.82
  17  -5 -14    4.68    3.77
  17  -5 -14   -0.48    3.68
  17  -5 -14    8.68    4.08
 -17   5  14    5.01    4.23
  17   5 -14   11.34    4.88
  17   5 -14    1.45    3.57
  15  -5 -14    3.34    3.91
  15  -5 -14    1.04    3.49
  15  -5 -14    2.74    3.32
 -15  -5  14    2.51    4.18
  15   5 -14    5.23    4.08
  15   5 -14   -1.15    3.22
 -15   5  14    1.45    3.60
  13  -5 -14    4.74    4.11
 -13  -5  14    5.79    3.98
  13  -5 -14    0.81    3.33
  13  -5 -14    3.47    3.59
  13   5 -14    1.11    3.30
 -13   5  14    2.07    3.30
  13   5 -14    6.66    3.78
  11  -5 -14    0.04    3.05
  11  -5 -14   -2.32    3.60
  11  -5 -14    0.84    3.28
 -11  -5  14    0.06    3.24
  11   5 -14    3.91    3.52
  11   5 -14    3.69    3.35
 -11   5  14   -2.00    3.12
  -9  -5  14    4.50    2.76
  -9  -5  14    7.83    3.61
   9  -5 -14   -3.43    2.86
  -9   5  14    3.06    3.01
  -9   5  14    0.46    3.11
   9   5 -14    4.51    3.70
   9   5 -14   -1.60    3.04
  -7  -5  14   57.75    5.58
   7  -5 -14   45.73    6.59
   7  -5 -14   45.87    5.38
  -7  -5  14   33.66    5.24
  -7   5  14   51.49    5.77
  -7   5  14   38.54    5.06
   7   5 -14   44.66    5.60
   7   5 -14   56.11    6.95
  -5  -5  14  113.92    7.46
  -5  -5  14  106.65    7.96
   5  -5 -14  112.24    9.74
   5  -5 -14  111.29    7.52
   5   5 -14  118.56    9.86
  -5   5  14  117.69    8.13
  -5   5  14  107.18    7.38
   5   5 -14  117.34    8.51
  -3  -5  14   26.41    4.61
   3  -5 -14   21.38    5.54
   3  -5 -14   25.93    4.58
  -3  -5  14   23.69    4.28
   3   5 -14   34.64    5.02
  -3   5  14   25.28    3.96
   3   5 -14   18.55    5.36
  -3   5  14   30.79    4.74
   1  -5 -14    1.10    4.53
  -1  -5  14    1.15    2.83
  -1  -5  14   -1.20    3.04
   1  -5 -14   -0.02    3.18
   1   5 -14    0.89    4.62
   1   5 -14   -2.65    3.35
  -1   5  14    0.94    2.52
  -1   5  14    0.24    2.91
   1  -5  14    8.22    3.73
  -1  -5 -14    5.16    3.56
   1  -5  14    8.25    3.26
  -1  -5 -14   -4.68    5.77
  -1   5 -14   13.09    4.11
   1   5  14    5.73    3.49
   1   5  14    4.15    3.17
  -1   5 -14    2.54    4.83
   3  -5  14   20.75    4.65
  -3  -5 -14   22.51    4.89
  -3   5 -14   24.35    4.87
   3   5  14   23.44    5.14
  -3   5 -14   27.43    8.02
  -3   5 -14   24.33    5.06
  -5  -5 -14   11.51    4.79
   5  -5  14   14.98    4.43
  -5   5 -14   13.58    4.60
   5   5  14   10.49    4.25
  -7  -5 -14   -0.85    4.61
   7  -5  14   -2.24    3.60
   7   5  14    5.60    4.61
  -7   5 -14    0.12    3.70
   9  -5  14    5.59    4.19
  -9  -5 -14    8.82    5.42
  -9   5 -14   17.73    5.40
   9   5  14   -2.00    4.36
  18  -6 -14    0.00    5.59
 -18  -6  14    7.07    5.24
  18  -6 -14    5.70    4.95
  18  -6 -14    4.34    4.37
  18   6 -14    9.42    4.69
  18   6 -14    5.11    4.83
 -18   6  14    9.23    5.20
 -16  -6  14   10.10    4.99
  16  -6 -14   11.31    5.56
  16  -6 -14    8.23    4.36
  16  -6 -14   15.96    5.28
  16   6 -14    7.33    4.89
 -16   6  14    8.66    4.76
  16   6 -14   10.27    4.84
  14  -6 -14   -1.18    4.51
  14  -6 -14    0.99    3.78
 -14  -6  14    1.25    4.19
  14  -6 -14   -3.52    3.29
 -14   6  14   -5.05    3.53
  14   6 -14   -1.63    3.72
  14   6 -14   -2.45    3.75
  12  -6 -14    9.61    4.49
 -12  -6  14   11.34    4.71
  12  -6 -14   11.99    4.35
  12  -6 -14   17.40    5.98
  12   6 -14   14.05    4.53
  12   6 -14   14.31    4.57
 -12   6  14   16.49    4.38
  10  -6 -14   -0.32    3.56
  10  -6 -14    1.13    3.59
  10  -6 -14   -0.21    4.84
 -10  -6  14    3.32    3.72
  10   6 -14    3.28    4.37
  10   6 -14   -3.92    3.51
 -10   6  14   -7.29    2.78
   8  -6 -14   12.29    5.70
  -8  -6  14   10.15    3.86
  -8  -6  14    7.17    3.25
   8  -6 -14    4.87    3.66
   8  -6 -14    6.06    3.68
   8  -6 -14   -0.78    3.50
   8   6 -14    7.52    4.86
  -8   6  14    9.14    4.01
   8   6 -14   14.53    4.30
  -6  -6  14    3.19    2.96
   6  -6 -14    5.95    3.52
   6  -6 -14    7.92    3.86
   6  -6 -14    1.98    3.39
   6  -6 -14   10.82    5.28
  -6  -6  14    3.13    3.33
   6   6 -14    4.25    4.91
  -6   6  14    5.70    3.40
   6   6 -14    6.73    3.88
  -4  -6  14   -2.17    2.71
  -4  -6  14    2.18    2.96
   4  -6 -14    0.44    4.86
   4  -6 -14    0.34    3.13
  -4   6  14    3.06    2.98
  -4   6  14    1.77    2.90
   4   6 -14    2.23    3.88
   4   6 -14   -7.41    4.20
   2  -6 -14    4.97    3.30
   2  -6 -14    1.95    5.07
  -2  -6  14    1.15    3.08
  -2  -6  14    7.28    3.51
  -2   6  14    5.87    3.58
  -2   6  14    0.82    2.74
   2   6 -14   -0.83    5.26
   2   6 -14   -1.36    3.09
   0  -6  14    3.27    3.69
   0  -6  14   10.59    3.88
   0  -6 -14    5.45    3.67
   0  -6 -14   20.59    8.22
   0   6  14   13.43    4.32
   0   6 -14    8.69    5.91
   0   6 -14    8.48    3.98
  -2  -6 -14    2.26    3.82
   2  -6  14    5.24    4.17
   2  -6  14    7.32    4.47
   2   6  14    6.92    4.00
  -2   6 -14    5.91    3.99
  -2   6 -14   14.99    7.44
   4  -6  14   15.81    5.01
  -4  -6 -14   15.66    5.33
  -4   6 -14   14.27    4.40
   4   6  14    7.77    4.44
  -6  -6 -14   -0.56    4.76
   6  -6  14   -1.24    3.47
  -6   6 -14    4.42    4.08
   6   6  14    3.32    4.37
  -8  -6 -14    2.78    5.16
   8  -6  14    1.42    3.90
   8   6  14    5.14    5.06
  -8   6 -14   -3.13    4.08
  15  -7 -14   -1.54    5.03
  15  -7 -14    3.43    4.47
  15  -7 -14    2.17    5.75
 -15  -7  14    0.26    5.05
 -15   7  14   -2.43    4.47
  15   7 -14    0.13    4.69
  15   7 -14    0.60    4.68
 -13  -7  14    0.91    4.21
  13  -7 -14   -1.20    4.95
  13  -7 -14    4.46    5.77
  13  -7 -14    8.19    4.46
  13   7 -14   -8.43    4.52
 -13   7  14    0.88    4.11
  13   7 -14   -0.36    3.99
  11  -7 -14   -3.24    5.18
  11  -7 -14   -2.55    3.92
 -11  -7  14    5.54    4.14
  11  -7 -14    5.04    4.75
 -11   7  14    3.44    4.07
  11   7 -14    0.27    5.15
  11   7 -14  -10.20    3.53
   9  -7 -14    0.10    4.11
   9  -7 -14    1.42    5.65
   9  -7 -14    2.10    3.85
  -9  -7  14    3.36    3.84
   9   7 -14   -7.21    4.76
  -9   7  14   -0.41    3.66
   9   7 -14   -2.68    3.57
   7  -7 -14    4.71    4.47
   7  -7 -14    9.26    6.45
  -7  -7  14    4.60    3.88
  -7  -7  14    7.48    3.99
   7  -7 -14    8.40    4.25
   7  -7 -14   21.43    4.72
  -7   7  14    3.32    3.78
   7   7 -14   -0.87    4.06
   7   7 -14    1.73    5.55
   5  -7 -14    0.72    3.43
   5  -7 -14   -1.18    3.32
   5  -7 -14    2.69    5.90
  -5  -7  14    0.60    3.32
   5  -7 -14    1.35    3.77
  -5  -7  14    0.88    3.58
  -5   7  14    2.22    3.64
   5   7 -14    1.15    5.35
   5   7 -14    7.61    4.41
  -3  -7  14   -0.13    3.29
  -3  -7  14    1.51    3.50
   3  -7 -14   -5.26    3.23
   3  -7 -14   -4.22    5.86
   3  -7 -14    2.43    4.04
   3  -7 -14    4.22    3.73
   3   7 -14    0.57    3.59
  -3   7  14   -2.52    3.42
   3   7 -14   -4.94    5.32
  -1  -7  14    1.76    3.58
  -1  -7  14    1.03    3.26
   1  -7 -14    3.77    3.98
  -1   7  14    4.90    3.82
   1   7 -14   -6.17    3.39
   1   7 -14    0.41    5.93
   1  -7  14    2.97    4.10
  -1  -7 -14    0.81    3.79
  -1   7 -14    6.77    4.24
  -1   7 -14    2.28    8.18
   1   7  14   -3.37    3.56
  -3  -7 -14   -1.13    3.64
   3  -7  14    0.19    3.98
   3   7  14    0.87    4.52
  -3   7 -14   -7.96    3.28
  -5  -7 -14    4.43    5.38
   5  -7  14    6.64    5.05
  -5   7 -14    4.59    4.25
   5   7  14   18.34    5.54
  12  -8 -14   -0.20    5.35
  12  -8 -14   -1.85    4.31
  12  -8 -14   -0.58    6.61
 -12  -8  14    0.28    4.57
  12   8 -14    1.31    4.74
  12   8 -14   -2.30    5.51
 -12   8  14    4.38    4.06
  10  -8 -14    5.39    4.95
  10  -8 -14   14.91    6.37
 -10  -8  14    1.58    4.20
  10  -8 -14    3.50    7.26
  10   8 -14    1.91    4.54
 -10   8  14    5.14    4.00
  10   8 -14    7.81    6.68
   8  -8 -14   -1.56    7.10
   8  -8 -14   -0.69    4.88
  -8  -8  14    5.45    4.30
   8  -8 -14    0.04    3.95
  -8   8  14   -1.72    3.26
   8   8 -14    1.83    6.36
   8   8 -14    0.92    4.22
   6  -8 -14    2.75    7.21
   6  -8 -14    9.40    4.74
   6  -8 -14    8.45    4.69
   6  -8 -14   15.31    5.38
  -6  -8  14   19.57    5.33
  -6   8  14   18.19    4.79
   6   8 -14   20.18    7.02
   6   8 -14   18.53    5.37
  -4  -8  14   13.50    4.72
   4  -8 -14    9.57    4.82
   4  -8 -14   12.96    4.86
   4  -8 -14   25.54    6.16
  -4  -8  14    7.40    4.11
   4  -8 -14   20.43   10.93
   4   8 -14   -0.78    6.29
   4   8 -14    5.70    4.77
  -4   8  14   12.90    4.75
  -2  -8  14   -0.86    3.67
   2  -8 -14   -5.74    3.52
  -2  -8  14    1.91    4.26
   2   8 -14    3.38    6.41
  -2   8  14    3.88    3.99
   2   8 -14   -3.27    3.90
   0  -8 -14    2.92    4.42
   0  -8  14   18.03    5.42
   0   8  14    3.28    4.57
   0   8 -14   15.19    5.48
  -2  -8 -14   16.56    5.29
   2  -8  14    9.71    4.99
  -2   8 -14    5.59    4.62
   2   8  14    6.14    4.83
   4   8  14    2.22    4.84
   9  -9 -14    0.07    4.74
   9  -9 -14   -1.84    5.53
  -9  -9  14   -5.04    4.06
   9  -9 -14   10.41    8.65
   9   9 -14   -7.05    4.09
  -9   9  14   -3.16    3.33
   9   9 -14   -1.54    6.97
   7  -9 -14   -0.12    5.51
  -7  -9  14    5.91    5.10
   7  -9 -14   -2.46    9.38
   7  -9 -14    2.47    4.96
  -7   9  14    2.53    4.04
   7   9 -14   -7.58    7.17
   7   9 -14    0.93    4.58
  -5  -9  14   22.17    6.08
   5  -9 -14   25.87   11.18
   5  -9 -14   39.25    7.23
   5  -9 -14   31.95   11.64
  -5   9  14   24.44    5.52
   5   9 -14   21.89    8.77
   5   9 -14   17.57    5.99
  -3  -9  14    5.00    4.57
   3  -9 -14   -0.23    4.60
  -3  -9  14    7.25    5.02
  -3   9  14    4.71    4.32
   3   9 -14    8.95    4.96
   3   9 -14    0.57    8.21
   1  -9 -14   -0.07    4.46
  -1  -9  14   -4.19    4.11
   1   9 -14    2.42    4.46
  -1   9  14    5.28    4.02
 -20   0  15    0.01    4.09
  20   0 -15    1.01    2.08
  18   0 -15   -1.05    3.53
  18   0 -15   -0.62    3.71
 -18   0  15   -1.64    3.65
 -16   0  15   -0.51    2.97
 -16   0  15   -0.76    3.11
 -16   0  15    1.58    3.58
 -14   0  15    1.39    2.73
 -14   0  15   -1.80    2.81
 -14   0  15   -0.29    2.93
  12   0 -15    2.28    1.66
 -12   0  15   -3.34    2.41
 -12   0  15   -1.37    2.30
  12   0 -15    2.12    2.73
 -10   0  15   -0.22    2.47
  10   0 -15    1.27    3.75
  10   0 -15    1.53    2.06
 -10   0  15    4.15    2.83
   8   0 -15    2.47    2.49
  -8   0  15    1.76    2.53
   8   0 -15    1.38    2.24
  -8   0  15   -2.61    2.07
  -6   0  15   -0.52    2.37
   6   0 -15   -0.12    2.43
  -6   0  15   -4.34    2.61
   6   0 -15    0.80    2.54
  -4   0  15   -0.95    2.38
   4   0 -15    2.52    2.95
   4   0 -15    1.78    2.64
  -4   0  15    0.08    2.32
   2   0 -15    2.27    3.34
   2   0 -15   -2.16    2.17
  -2   0  15    1.77    2.49
   0   0 -15    0.73    2.71
   0   0 -15    0.17    3.62
   0   0  15   -2.85    2.05
  -2   0 -15   -2.49    2.66
   2   0  15    0.35    2.37
  -2   0 -15   -3.87    4.06
  -4   0 -15   -3.63    5.27
   4   0  15    0.16    2.41
  -4   0 -15   -3.11    2.93
   6   0  15   -2.55    2.31
  -6   0 -15    0.47    3.38
  -8   0 -15   -3.10    4.10
   8   0  15    2.04    3.46
  21  -1 -15    0.48    2.85
 -21  -1  15   -4.64    4.24
  21   1 -15    3.01    4.49
 -21   1  15   -2.58    4.35
  21   1 -15    6.91    2.50
 -19  -1  15    2.68    4.31
 -19  -1  15    7.01    4.72
  19  -1 -15    4.76    2.45
  19  -1 -15    4.31    4.08
  19  -1 -15    8.81    4.11
 -19   1  15    4.86    4.52
  17  -1 -15    5.43    3.44
 -17  -1  15   -0.24    3.73
 -17  -1  15    1.82    3.34
  17  -1 -15   -3.63    3.01
 -17  -1  15    0.26    3.50
  17  -1 -15   -0.01    1.79
 -17  -1  15    1.47    4.26
 -17   1  15    1.02    3.44
 -15  -1  15   10.97    3.82
  15  -1 -15    7.59    2.09
 -15  -1  15    8.94    3.45
 -15  -1  15   11.77    3.31
 -15  -1  15    9.30    3.43
 -15   1  15    4.29    3.49
 -15   1  15    5.62    3.36
 -13  -1  15    5.75    2.99
  13  -1 -15    3.12    2.78
 -13  -1  15    2.62    3.09
  13  -1 -15    0.84    1.68
 -13  -1  15    4.61    3.03
 -13   1  15   -0.15    2.83
  13   1 -15   -0.18    2.61
 -13   1  15   -0.71    2.70
 -11  -1  15   31.01    4.42
  11  -1 -15   23.34    3.07
 -11  -1  15   15.86    3.58
  11  -1 -15   18.46    3.58
 -11   1  15   25.03    3.93
  11   1 -15   20.96    2.70
  11   1 -15   16.30    3.40
 -11   1  15   23.72    3.89
   9  -1 -15    7.66    3.09
  -9  -1  15   20.93    3.43
   9  -1 -15   13.23    2.91
  -9  -1  15   16.00    3.53
  -9   1  15    5.38    2.61
  -9   1  15   11.94    3.11
   9   1 -15   10.15    2.86
   9   1 -15   12.23    2.78
   7  -1 -15   29.23    4.20
  -7  -1  15   33.78    4.18
   7  -1 -15   25.75    4.06
  -7   1  15   31.21    3.77
  -7   1  15   30.24    3.96
   7   1 -15   27.47    4.20
   7   1 -15   27.67    4.03
   7   1 -15   33.70    4.05
   5  -1 -15  109.94    7.15
  -5  -1  15  102.95    6.85
   5  -1 -15  100.03    7.57
   5   1 -15  109.82    6.82
   5   1 -15  101.50    7.39
   5   1 -15  121.32    7.71
  -5   1  15  108.37    6.39
  -5   1  15   89.33    6.63
  -3  -1  15   11.46    3.15
   3  -1 -15   16.33    4.18
   3  -1 -15   14.88    3.48
  -3   1  15    7.39    2.91
  -3   1  15   20.68    3.23
   3   1 -15   17.35    3.61
   3   1 -15   16.32    3.95
   3   1 -15   13.94    3.40
  -1  -1  15    5.79    2.69
   1  -1 -15    3.30    3.73
   1  -1 -15    4.28    3.08
   1   1 -15    8.09    3.95
   1   1 -15    4.08    2.82
  -1   1  15    2.44    2.64
   1   1 -15   10.42    3.32
  -1   1  15    9.42    2.81
  -1  -1 -15   19.63    4.11
  -1  -1 -15   23.72    5.38
   1  -1  15   12.45    3.32
   1   1  15   10.39    2.91
  -1   1 -15   16.85    3.79
  -1   1 -15   15.95    4.79
   1   1  15   12.95    3.17
  -1   1 -15   14.85    3.88
  -3  -1 -15   -6.27    4.15
   3  -1  15   -0.58    2.55
  -3  -1 -15    1.69    2.98
   3   1  15    0.05    2.43
  -3   1 -15    1.12    3.46
   3   1  15   -1.23    2.79
  -3   1 -15    3.06    3.60
  -3   1 -15   -5.30    4.13
   5  -1  15    3.82    3.07
  -5  -1 -15   13.88    4.26
   5   1  15   11.98    3.89
  -5   1 -15    8.85    4.24
  -5   1 -15   12.49    4.12
   5   1  15   10.47    3.14
   7  -1  15    3.21    3.01
  -7  -1 -15    3.82    3.94
  -7   1 -15    6.25    4.37
   7   1  15    2.75    4.26
   7   1  15    5.57    3.74
  -7   1 -15    5.61    5.16
  -9  -1 -15    0.76    4.51
   9  -1  15    1.11    3.57
   9   1  15    1.08    5.87
 -20  -2  15    2.90    4.17
  20  -2 -15    0.03    4.48
  20  -2 -15    2.03    4.60
  20  -2 -15    1.32    2.92
 -20   2  15    2.41    4.49
  20   2 -15    0.82    2.29
  18  -2 -15    0.84    2.53
  18  -2 -15   -1.13    3.25
  18  -2 -15    0.75    3.35
 -18  -2  15    4.70    3.60
 -18  -2  15    4.72    4.51
 -18   2  15    0.30    3.74
 -16  -2  15    1.22    3.34
 -16  -2  15    2.80    3.40
  16  -2 -15    4.18    3.38
  16  -2 -15    6.01    3.62
  16  -2 -15    2.94    2.51
 -16   2  15    1.23    3.69
 -14  -2  15   30.83    4.90
 -14  -2  15   25.52    4.04
  14  -2 -15   28.85    3.72
 -14   2  15   29.26    4.74
  14   2 -15   25.19    2.49
 -14   2  15   29.53    4.79
  14   2 -15   27.01    4.32
  12  -2 -15    2.61    2.80
 -12  -2  15    6.66    2.79
 -12  -2  15    1.50    2.88
  12  -2 -15    4.35    2.46
  12   2 -15    0.57    2.69
  12   2 -15    2.00    1.93
 -12   2  15    5.77    3.26
 -12   2  15    1.29    2.78
  10  -2 -15   50.69    5.01
  10  -2 -15   50.98    5.34
 -10  -2  15   46.57    4.93
 -10  -2  15   49.95    5.67
 -10   2  15   56.79    5.73
  10   2 -15   54.43    4.68
 -10   2  15   50.56    5.24
  10   2 -15   51.88    5.13
  -8  -2  15   19.05    3.84
   8  -2 -15   19.30    3.73
   8  -2 -15   14.25    3.67
  -8  -2  15   19.46    3.55
  -8   2  15   18.79    3.54
   8   2 -15   15.10    3.28
   8   2 -15   21.54    3.53
  -8   2  15   15.17    3.47
  -6  -2  15   21.16    3.69
   6  -2 -15   25.76    4.07
   6  -2 -15   23.39    4.34
  -6  -2  15   18.96    3.81
  -6   2  15   26.39    4.05
   6   2 -15   20.10    4.05
  -6   2  15   29.22    3.92
   6   2 -15   29.66    3.93
  -4  -2  15  171.53    9.42
   4  -2 -15  168.13   10.53
   4  -2 -15  171.81    9.64
   4   2 -15  180.10   10.52
   4   2 -15  181.14    9.24
  -4   2  15  163.60    9.25
   4   2 -15  166.18    9.61
  -4   2  15  182.02    9.15
   2  -2 -15    8.68    3.79
   2  -2 -15    5.35    2.88
  -2  -2  15    7.78    2.92
   2   2 -15    6.35    3.12
  -2   2  15    9.57    2.88
   2   2 -15    3.95    3.68
  -2   2  15    8.78    2.86
   2   2 -15    2.47    2.87
   0  -2 -15   70.63    6.76
   0  -2 -15   75.66    8.23
   0  -2  15   61.28    5.95
   0   2  15   73.76    6.05
   0   2 -15   78.69    7.86
   0   2 -15   72.80    6.16
   0   2 -15   59.39    6.16
   0   2  15   81.07    6.40
  -2  -2 -15    2.87    4.70
   2  -2  15    1.50    2.49
  -2  -2 -15    3.95    3.56
   2   2  15    4.57    2.94
   2   2  15    7.25    2.85
  -2   2 -15    5.54    3.14
  -2   2 -15    3.54    3.04
  -2   2 -15   -1.10    4.19
  -4  -2 -15    3.80    3.82
   4  -2  15    2.66    3.02
  -4   2 -15    4.94    3.15
  -4   2 -15    0.73    5.22
   4   2  15   -1.16    2.41
  -4   2 -15    1.21    3.02
   4   2  15    0.52    3.10
   6  -2  15   -3.91    2.54
  -6  -2 -15    1.68    3.93
  -6   2 -15    3.14    3.42
  -6   2 -15    3.10    3.93
   6   2  15    3.89    3.66
  -8  -2 -15    3.02    4.22
   8  -2  15   -3.16    2.94
   8   2  15   -3.71    3.73
  -8   2 -15    5.49    3.92
 -10  -2 -15   30.03    6.52
  10  -2  15   23.62    5.42
 -10   2 -15   22.10    5.70
  10   2  15   32.37    6.42
  21   3 -15    0.91    3.15
  19  -3 -15   -1.16    3.78
 -19  -3  15   -5.58    4.02
  19  -3 -15    2.98    3.40
 -19  -3  15    0.89    4.55
  19  -3 -15    8.23    4.77
  19   3 -15    3.51    2.69
 -19   3  15    3.86    4.24
 -17  -3  15   -0.01    3.53
 -17  -3  15    2.68    3.79
  17  -3 -15   -3.69    3.35
  17  -3 -15    5.74    3.79
  17  -3 -15   -2.14    2.64
  17   3 -15   -2.27    2.20
 -17   3  15   -2.08    3.56
  15  -3 -15    4.73    3.57
  15  -3 -15   10.45    3.91
 -15  -3  15    7.38    3.92
  15  -3 -15   20.40    3.75
 -15   3  15   16.97    4.46
  15   3 -15    8.59    2.43
  15   3 -15    9.66    3.96
 -13  -3  15   12.56    3.38
 -13  -3  15   10.05    3.94
  13  -3 -15    8.86    3.15
  13   3 -15   14.14    2.92
 -13   3  15   11.60    3.82
  13   3 -15    8.89    3.39
 -13   3  15   12.17    3.75
 -11  -3  15    1.72    2.70
  11  -3 -15    0.09    2.73
  11  -3 -15   -2.90    2.55
 -11  -3  15    2.91    3.41
  11   3 -15    5.14    2.85
 -11   3  15    1.23    2.92
  11   3 -15    6.23    3.25
 -11   3  15    4.59    3.45
   9  -3 -15    6.18    3.17
   9  -3 -15   10.41    3.16
  -9  -3  15    8.04    3.63
  -9  -3  15    9.35    3.10
   9   3 -15    7.97    3.03
  -9   3  15    5.05    2.98
   9   3 -15    8.20    3.18
  -9   3  15    7.61    3.15
  -7  -3  15   83.51    7.41
   7  -3 -15  104.71    7.90
  -7  -3  15  118.72    7.20
   7  -3 -15   91.15    6.94
  -7   3  15   97.77    6.88
  -7   3  15   97.22    6.90
   7   3 -15   93.96    7.23
   7   3 -15  102.55    7.03
  -5  -3  15   30.19    4.26
  -5  -3  15   39.49    4.89
   5  -3 -15   37.77    4.82
   5  -3 -15   42.41    6.01
   5   3 -15   37.18    5.44
  -5   3  15   34.96    4.37
   5   3 -15   38.21    5.00
  -5   3  15   41.90    4.89
   3  -3 -15    5.98    3.07
  -3  -3  15    7.73    3.74
   3  -3 -15    8.99    4.07
  -3  -3  15    5.52    3.01
  -3   3  15    1.71    2.33
   3   3 -15    6.68    3.22
   3   3 -15    3.79    3.87
  -3   3  15    6.51    2.87
   1  -3 -15    1.69    2.81
  -1  -3  15   -0.48    2.78
   1  -3 -15    1.24    3.91
   1   3 -15   -3.33    2.87
  -1   3  15   -0.66    2.59
   1   3 -15    1.21    3.02
   1   3 -15    7.05    4.31
  -1   3  15    1.64    2.33
  -1  -3 -15   10.04    4.84
  -1  -3 -15    5.98    3.61
   1  -3  15    9.89    3.51
   1   3  15   13.07    3.69
  -1   3 -15   16.57    3.96
   1   3  15   18.48    3.47
  -1   3 -15    8.52    3.64
  -1   3 -15   10.06    5.00
  -3  -3 -15   28.79   11.63
   3  -3  15   13.53    3.84
  -3  -3 -15   13.12    4.32
  -3   3 -15   19.19    4.23
  -3   3 -15   21.29    4.57
   3   3  15   15.38    4.04
  -3   3 -15   19.19    6.01
   3   3  15   16.19    3.46
  -5  -3 -15   -0.20    3.93
   5  -3  15   -0.26    2.96
   5   3  15    4.00    3.82
  -5   3 -15   -1.01    3.38
  -5   3 -15   -5.64    3.70
  -7  -3 -15    3.70    4.14
   7  -3  15    1.03    3.29
   7   3  15   -0.40    3.57
  -7   3 -15   -6.82    3.52
   9  -3  15    1.02    3.61
  -9  -3 -15    0.94    4.78
  -9   3 -15    3.79    4.56
   9   3  15    7.57    5.09
  20  -4 -15   -6.08    4.48
 -20  -4  15    3.04    5.62
  20  -4 -15   10.47    4.58
 -20  -4  15    2.97    4.88
  20  -4 -15    9.03    4.84
 -20   4  15    0.30    4.54
  20   4 -15    1.28    3.52
  18  -4 -15    8.18    3.90
  18  -4 -15   -0.16    3.88
 -18  -4  15    1.88    4.11
  18  -4 -15    4.88    3.86
  18   4 -15    2.23    3.19
 -18   4  15    6.38    4.50
  18   4 -15   -0.72    3.97
  16  -4 -15   -2.41    3.05
  16  -4 -15    0.31    3.57
  16  -4 -15    2.22    3.57
 -16  -4  15    0.43    4.23
  16   4 -15    1.87    2.72
 -16   4  15   -0.84    3.60
  16   4 -15    1.70    3.94
  14  -4 -15    9.56    3.68
  14  -4 -15    2.95    3.45
 -14  -4  15    5.54    3.72
  14  -4 -15    7.91    3.83
  14   4 -15    5.76    3.84
  14   4 -15    2.38    3.06
 -14   4  15    5.74    3.71
 -12  -4  15    3.33    3.54
 -12  -4  15   -5.01    3.03
 -12   4  15    3.28    3.19
  12   4 -15    2.09    2.95
 -12   4  15   -1.92    3.01
  12   4 -15    2.23    3.17
  10  -4 -15   45.31    5.26
 -10  -4  15   52.46    5.29
  10  -4 -15   48.00    6.03
 -10  -4  15   36.00    5.39
 -10   4  15   40.44    5.39
  10   4 -15   39.71    5.20
 -10   4  15   46.42    5.78
  10   4 -15   46.00    5.46
  -8  -4  15   16.23    3.48
   8  -4 -15   12.45    3.60
  -8  -4  15   15.62    3.78
   8  -4 -15    4.84    3.94
  -8   4  15   15.07    3.65
   8   4 -15    7.74    3.88
   8   4 -15   13.20    3.71
  -8   4  15   12.19    3.63
   6  -4 -15   37.94    5.90
  -6  -4  15   26.93    4.28
   6  -4 -15   37.39    5.04
  -6  -4  15   32.06    4.76
   6   4 -15   24.62    5.11
   6   4 -15   33.39    4.90
  -6   4  15   26.46    4.21
  -6   4  15   37.37    5.08
   4  -4 -15   17.15    3.82
   4  -4 -15   15.56    4.83
  -4  -4  15   16.25    3.70
  -4  -4  15   14.70    3.58
   4   4 -15   17.54    5.00
   4   4 -15   10.61    3.70
  -4   4  15   19.45    3.50
  -4   4  15   14.70    3.68
  -2  -4  15    1.45    2.87
   2  -4 -15    5.44    3.16
   2  -4 -15   -3.69    3.78
  -2  -4  15    2.81    3.10
  -2   4  15   -0.72    2.23
   2   4 -15   -0.91    3.84
  -2   4  15    0.48    2.93
   2   4 -15    5.33    3.38
   0  -4 -15    2.59    3.07
   0  -4  15   -0.98    2.59
   0  -4 -15    2.64    4.53
   0   4 -15    1.25    4.12
   0   4  15   -3.55    2.36
   0   4 -15   -1.98    2.96
   0   4 -15   -0.74    3.03
   0   4  15    2.24    3.06
  -2  -4 -15    2.88    3.64
  -2  -4 -15   -4.10    5.54
   2  -4  15    0.88    3.10
  -2   4 -15    5.47    5.33
   2   4  15    1.02    3.41
  -2   4 -15    5.54    3.65
   2   4  15    5.37    2.92
  -2   4 -15    5.47    3.59
   4  -4  15   12.07    4.04
  -4  -4 -15   12.10    4.73
   4   4  15   10.86    4.09
  -4   4 -15   13.78    4.24
  -4   4 -15    9.24    4.55
  -6  -4 -15    8.13    4.68
   6  -4  15    1.99    3.69
  -6   4 -15    3.29    4.07
   6   4  15   -1.21    3.77
   8  -4  15    2.84    3.87
  -8  -4 -15    1.65    4.73
  -8   4 -15   -2.01    7.12
   8   4  15    0.72    4.32
  19  -5 -15   -2.24    4.17
 -19  -5  15    6.75    5.48
  19  -5 -15   -2.38    3.73
  19  -5 -15    0.32    4.20
 -19   5  15   -0.78    4.74
  19   5 -15    1.28    3.84
  19   5 -15    3.95    5.04
  17  -5 -15    4.31    4.79
 -17  -5  15    6.00    5.04
  17  -5 -15   -3.60    3.82
  17  -5 -15    2.12    4.37
  17   5 -15   -1.45    3.45
 -17   5  15   -0.47    4.03
  17   5 -15    5.60    4.57
  15  -5 -15    2.36    3.48
 -15  -5  15    7.85    4.46
  15  -5 -15   10.65    4.47
  15  -5 -15    0.58    3.41
  15   5 -15    3.88    4.45
 -15   5  15    6.75    4.21
  15   5 -15    7.71    3.99
  13  -5 -15   20.49    5.32
  13  -5 -15   19.87    4.94
 -13  -5  15   23.87    5.29
  13  -5 -15    8.87    4.04
 -13   5  15   15.52    4.70
  13   5 -15   11.17    3.85
  13   5 -15   23.21    4.96
  11  -5 -15    3.98    3.29
  11  -5 -15    4.71    4.37
  11  -5 -15    3.27    3.63
 -11  -5  15    2.80    3.86
  11   5 -15    3.83    3.81
 -11   5  15   -2.31    3.12
  11   5 -15    5.58    3.72
  -9  -5  15   -3.05    2.83
  -9  -5  15   -0.17    2.65
   9  -5 -15   -2.23    2.77
   9  -5 -15    4.06    4.13
  -9   5  15   -0.86    3.19
   9   5 -15    0.41    3.43
  -9   5  15    2.10    3.16
   9   5 -15    0.94    3.21
  -7  -5  15   15.65    4.23
   7  -5 -15   11.53    4.79
  -7  -5  15    8.77    3.38
   7  -5 -15   11.98    3.67
   7   5 -15    5.53    4.47
   7   5 -15   14.50    4.14
  -7   5  15   12.54    3.78
  -7   5  15   12.07    3.37
   5  -5 -15   30.97    4.84
   5  -5 -15   25.55    5.79
  -5  -5  15   30.97    4.80
  -5  -5  15   29.48    4.91
  -5   5  15   36.89    5.21
   5   5 -15   33.54    5.20
   5   5 -15   25.13    6.03
  -5   5  15   28.07    4.43
  -3  -5  15   21.30    4.41
   3  -5 -15   28.67    6.43
  -3  -5  15   24.43    4.48
   3  -5 -15   23.06    4.64
  -3   5  15   23.04    4.50
  -3   5  15   26.80    4.18
   3   5 -15   24.67    4.95
   3   5 -15   26.24    6.24
  -1  -5  15    0.80    2.99
  -1  -5  15    6.04    3.28
   1  -5 -15   -0.51    3.43
   1  -5 -15   -4.36    4.58
   1   5 -15    3.97    3.92
   1   5 -15    0.58    4.90
  -1   5  15    5.56    3.47
  -1   5  15    1.66    2.66
   1  -5  15   -0.31    3.52
  -1  -5 -15    3.80    3.66
  -1  -5 -15    1.66    7.10
  -1   5 -15    3.47    3.58
  -1   5 -15   10.82    6.16
  -1   5 -15    1.60    3.48
   1   5  15   -3.83    3.23
   1   5  15    4.28    3.44
  -3  -5 -15    8.83    4.45
   3  -5  15    8.30    3.71
   3   5  15    2.60    3.62
  -3   5 -15    5.01    4.04
  -3   5 -15   12.88    4.84
   5  -5  15    4.78    3.67
  -5  -5 -15   -3.07    4.38
  -5   5 -15    4.36    4.20
   5   5  15    4.94    3.92
  -7  -5 -15    8.19    5.11
   7  -5  15    3.54    4.17
  -7   5 -15    1.63    4.22
   7   5  15    4.83    4.69
  16  -6 -15   15.98    5.87
  16  -6 -15    6.86    4.51
  16  -6 -15   11.39    4.46
 -16  -6  15   10.06    5.59
 -16   6  15    4.40    4.53
  16   6 -15    5.54    5.17
  16   6 -15   20.04    5.10
 -14  -6  15    7.26    5.15
  14  -6 -15    9.20    4.38
  14  -6 -15    9.40    4.66
  14  -6 -15    4.65    5.03
  14   6 -15    1.66    4.10
 -14   6  15    4.85    4.32
  14   6 -15   -2.89    3.86
 -12  -6  15    3.06    4.26
  12  -6 -15    2.23    3.79
  12  -6 -15    7.39    5.21
  12  -6 -15    4.25    4.23
  12   6 -15   -2.66    3.93
 -12   6  15   -0.03    3.48
  12   6 -15    0.65    4.14
  10  -6 -15   -2.20    4.86
  10  -6 -15    5.14    3.84
 -10  -6  15    0.25    3.45
  10  -6 -15   -4.60    3.26
  10   6 -15    6.43    4.57
 -10   6  15   -2.50    3.09
  10   6 -15    1.18    3.94
  -8  -6  15    5.10    2.99
   8  -6 -15   -0.28    3.71
   8  -6 -15    5.48    3.83
   8  -6 -15    0.45    3.38
  -8  -6  15   -3.21    2.97
   8  -6 -15    1.68    4.80
   8   6 -15    4.03    4.00
  -8   6  15    0.21    3.31
   8   6 -15    6.28    4.73
  -6  -6  15    1.19    3.26
   6  -6 -15    3.79    3.47
  -6  -6  15    3.69    3.27
  -6   6  15    3.91    3.53
   6   6 -15    4.05    4.91
   6   6 -15   -1.12    3.89
  -6   6  15    5.23    3.39
  -4  -6  15    2.22    3.03
  -4  -6  15    9.12    3.74
   4  -6 -15    6.84    3.56
   4  -6 -15    1.84    5.03
   4   6 -15    3.10    4.93
  -4   6  15    3.55    3.12
  -4   6  15    5.50    3.78
   4   6 -15    1.35    3.66
   2  -6 -15    2.81    3.35
  -2  -6  15    0.40    2.97
  -2  -6  15    4.81    3.69
   2  -6 -15    8.77    5.63
  -2   6  15    5.37    3.92
   2   6 -15    1.14    3.56
  -2   6  15    1.06    2.99
   2   6 -15    7.58    5.79
   0  -6 -15    4.15    3.81
   0  -6  15    5.22    3.52
   0  -6  15    2.23    3.59
   0   6 -15   -3.82    5.25
   0   6 -15    5.24    3.85
   0   6  15    1.16    3.45
  -2  -6 -15   -0.42    3.32
   2  -6  15    2.36    3.66
   2   6  15    9.74    4.20
  -2   6 -15   -1.20    3.81
   4  -6  15   -1.56    4.17
  -4  -6 -15    0.12    4.48
   4   6  15    1.82    4.26
  -4   6 -15   -0.69    3.83
  -6  -6 -15    6.46    5.36
   6  -6  15   -5.22    3.49
  -6   6 -15    5.56    4.67
   6   6  15   -2.51    4.17
  15  -7 -15   -3.85    4.30
  15  -7 -15   -0.68    5.42
 -15  -7  15    4.63    5.38
  15  -7 -15    4.62    6.17
  15   7 -15    1.42    4.47
 -15   7  15    2.91    5.10
  15   7 -15   -1.45    4.27
 -13  -7  15    1.27    4.67
  13  -7 -15   -2.64    4.63
  13  -7 -15    1.33    5.80
  13  -7 -15    1.71    4.06
  13   7 -15   -2.06    4.45
  13   7 -15   -2.75    4.91
 -13   7  15    5.15    4.33
 -11  -7  15    2.12    3.87
  11  -7 -15    3.42    4.17
  11  -7 -15    2.84    5.82
  11  -7 -15    6.18    4.80
 -11   7  15    2.77    4.08
  11   7 -15    1.40    4.12
  11   7 -15   -6.31    4.69
   9  -7 -15   -0.16    4.13
   9  -7 -15    4.01    5.96
  -9  -7  15    0.20    3.59
   9  -7 -15   -3.02    3.69
  -9   7  15    2.09    4.27
   9   7 -15    4.70    4.46
   9   7 -15    4.11    5.86
   7  -7 -15   -6.91    3.62
   7  -7 -15   -2.13    4.03
   7  -7 -15    7.87    6.28
   7  -7 -15   -1.34    3.57
  -7  -7  15    1.32    3.62
  -7  -7  15   -2.54    3.52
   7   7 -15   -2.02    3.98
   7   7 -15   -4.22    5.10
  -7   7  15    2.64    3.70
  -5  -7  15   18.98    4.59
   5  -7 -15   20.12    4.87
  -5  -7  15   14.08    4.10
   5  -7 -15   20.59    7.01
   5  -7 -15   20.47    5.42
   5  -7 -15   17.53    4.67
   5   7 -15   10.03    4.81
   5   7 -15   14.62    6.46
  -5   7  15   15.91    4.72
  -3  -7  15   -4.67    3.07
   3  -7 -15    0.30    4.11
   3  -7 -15    6.90    4.85
   3  -7 -15    2.64    3.70
  -3  -7  15   10.03    4.12
   3  -7 -15    3.14    6.76
   3   7 -15    7.83    5.99
   3   7 -15    5.40    4.41
  -3   7  15   11.68    4.45
   1  -7 -15    4.34    3.96
  -1  -7  15   -4.52    3.18
  -1  -7  15    2.31    3.62
   1   7 -15   -2.51    3.97
  -1   7  15   -2.38    3.99
   1   7 -15   -9.60    6.19
   1  -7  15    6.39    4.44
  -1  -7 -15   -0.49    3.77
  -1   7 -15   11.43    4.51
   1   7  15   11.26    4.83
  -3  -7 -15   -1.05    3.75
   3  -7  15    3.03    4.56
   3   7  15    0.16    4.25
  -3   7 -15   -1.86    4.12
  -5  -7 -15    1.43    5.25
   5  -7  15   13.86    5.62
  -5   7 -15    4.83    4.54
   5   7  15    4.11    4.74
 -12  -8  15   -3.43    4.07
  12  -8 -15   -2.22    5.57
  12  -8 -15    3.92    5.04
  12  -8 -15    2.00    6.85
  12   8 -15    4.16    4.89
  12   8 -15    3.59    6.50
 -12   8  15   -2.24    4.25
  10  -8 -15    0.78    4.64
 -10  -8  15    0.16    4.25
  10  -8 -15   -2.98    4.72
  10  -8 -15    3.49    7.28
 -10   8  15    1.82    4.37
  10   8 -15    3.05    4.97
  10   8 -15    3.48    6.20
  -8  -8  15    3.87    4.62
   8  -8 -15    2.06    4.57
   8  -8 -15   -6.25    4.40
   8  -8 -15   -0.92    6.79
   8   8 -15   -8.18    4.27
  -8   8  15    0.35    4.22
   8   8 -15    2.82    6.58
   6  -8 -15    4.32    7.05
   6  -8 -15    0.13    4.59
   6  -8 -15   -2.57    4.09
  -6  -8  15    9.29    8.88
  -6  -8  15    1.37    3.99
   6  -8 -15    5.20    4.68
   6   8 -15    3.90    4.90
  -6   8  15   -4.12    3.90
   6   8 -15    3.68    6.56
   4  -8 -15    8.34    5.04
  -4  -8  15    3.91    4.30
   4  -8 -15    6.26    5.59
  -4  -8  15    2.38    3.86
   4  -8 -15    5.68    4.42
   4   8 -15    1.49    5.19
   4   8 -15    5.05    6.80
  -4   8  15    5.44    4.59
  -2  -8  15    4.34    4.61
   2  -8 -15   10.87    4.94
  -2  -8  15    8.22    4.73
  -2   8  15    6.13    4.48
   2   8 -15   10.28    7.17
   2   8 -15    8.74    5.01
   0  -8  15   12.11    5.34
   0  -8 -15   20.45    5.72
   0   8 -15   21.25    6.01
   0   8  15   14.97    5.33
  -2  -8 -15   13.83    5.09
   2  -8  15   17.24    5.79
  -2   8 -15   10.98    5.05
   2   8  15    9.06    5.32
  20   0 -16    5.41    2.31
 -20   0  16    5.28    4.72
 -18   0  16    4.33    4.06
 -18   0  16   14.31    4.61
 -16   0  16   10.88    4.09
  16   0 -16    9.65    4.00
 -16   0  16    8.10    3.76
 -14   0  16   58.15    6.12
  14   0 -16   65.72    6.33
 -14   0  16   61.28    6.22
  14   0 -16   62.34    3.68
 -12   0  16   42.25    5.27
  12   0 -16   47.29    3.91
 -12   0  16   60.04    5.63
  12   0 -16   59.70    6.08
  10   0 -16   84.85    5.73
  10   0 -16   97.18    7.06
 -10   0  16   77.94    6.67
 -10   0  16   88.61    6.33
   8   0 -16   30.17    4.37
   8   0 -16   27.47    4.00
  -8   0  16   26.21    4.18
   6   0 -16  114.97    7.69
  -6   0  16  122.09    7.78
   6   0 -16  129.53    8.15
   4   0 -16   84.28    7.63
   4   0 -16   72.03    6.58
  -4   0  16   70.47    6.35
   2   0 -16    5.82    4.11
  -2   0  16    8.17    2.96
   2   0 -16   -0.72    2.65
   0   0  16    2.69    2.50
   0   0 -16   -3.34    3.74
   0   0 -16   -0.59    2.79
   2   0  16   38.34    4.96
  -2   0 -16   48.05    5.78
  -2   0 -16   46.56    7.59
   4   0  16   19.52    3.91
  -4   0 -16   19.59    4.79
   6   0  16    3.82    3.15
  -6   0 -16    7.10    4.47
   8   0  16    9.98    4.53
  -8   0 -16   18.12    5.42
  21  -1 -16   22.84    3.80
  21   1 -16   33.24    3.43
 -21   1  16   30.74    6.28
  19  -1 -16   33.55    3.57
  19  -1 -16   38.24    6.38
  19  -1 -16   26.45    5.63
 -19   1  16   32.52    6.01
 -17  -1  16    2.49    3.90
 -17  -1  16   12.24    4.36
 -17   1  16    3.92    3.74
 -17   1  16    5.19    3.57
 -15  -1  16    7.35    3.63
 -15  -1  16    3.55    3.16
  15  -1 -16    9.25    2.26
  15  -1 -16    7.22    3.86
 -15   1  16    7.02    3.36
 -15   1  16    2.73    3.34
  13  -1 -16   62.87    4.51
 -13  -1  16   50.45    5.86
  13  -1 -16   60.13    5.89
 -13  -1  16   57.05    5.65
 -13   1  16   55.59    6.00
 -13   1  16   68.51    6.21
  13   1 -16   59.04    3.90
  11  -1 -16    5.01    2.98
  11  -1 -16    4.11    2.47
 -11  -1  16    5.31    2.90
 -11  -1  16   15.27    3.71
 -11   1  16    0.45    2.88
 -11   1  16   10.68    3.23
  11   1 -16    4.87    2.28
   9  -1 -16   19.56    3.72
  -9  -1  16   23.56    4.01
   9  -1 -16   24.05    3.74
  -9   1  16   31.75    4.08
  -9   1  16   24.26    3.94
   9   1 -16   21.85    4.14
   9   1 -16   28.40    3.73
   7  -1 -16    4.13    2.75
   7  -1 -16    5.24    2.81
  -7  -1  16    6.74    3.05
   7   1 -16   -0.82    2.58
  -7   1  16    3.13    2.63
   7   1 -16    5.44    2.95
  -7   1  16    3.96    2.81
  -5  -1  16   69.32    6.24
   5  -1 -16   81.91    6.88
   5  -1 -16   80.47    7.13
  -5   1  16   78.61    5.64
   5   1 -16   66.13    6.76
  -5   1  16   72.70    6.18
   5   1 -16   59.56    6.21
  -3  -1  16   78.51    6.69
   3  -1 -16  101.70    7.20
   3  -1 -16   82.55    8.16
   3   1 -16   89.35    7.40
  -3   1  16   98.48    6.29
  -3   1  16   72.56    6.56
   3   1 -16  102.17    8.64
   1  -1 -16   21.47    5.28
  -1  -1  16   12.25    3.54
   1  -1 -16   21.07    4.19
  -1   1  16   21.35    3.63
  -1   1  16   21.16    3.77
   1   1 -16   29.20    4.65
   1   1 -16   15.43    4.81
   1  -1  16    0.49    2.47
  -1  -1 -16    3.45    4.62
  -1  -1 -16   -1.45    3.32
   1   1  16    0.25    2.45
  -1   1 -16    2.83    4.21
  -1   1 -16    0.46    3.44
   1   1  16   -0.27    2.79
  -3  -1 -16   -1.88    4.89
   3  -1  16    2.12    2.79
  -3  -1 -16    3.11    3.62
   3   1  16    1.49    2.83
   3   1  16    2.96    3.43
  -3   1 -16   -1.64    5.02
  -3   1 -16    2.23    3.70
   5  -1  16    2.37    2.91
  -5  -1 -16    8.19    4.40
  -5   1 -16    3.28    3.96
   5   1  16    8.01    3.21
  -7  -1 -16   -0.66    3.98
   7  -1  16    3.39    3.59
  -7   1 -16   -2.49    4.53
  -9  -1 -16    8.18    5.59
   9  -1  16    3.07    4.50
  20  -2 -16   -1.63    3.78
 -20  -2  16    1.96    4.42
  20  -2 -16    0.36    4.10
  20  -2 -16   -0.54    2.64
  20   2 -16   -0.16    2.31
 -20   2  16    0.05    4.57
  18  -2 -16   13.28    4.45
 -18  -2  16   10.94    4.68
  18  -2 -16    3.39    2.71
 -18  -2  16    3.66    4.19
  18  -2 -16    0.98    3.61
 -18   2  16    5.11    4.05
 -16  -2  16    3.39    3.83
 -16   2  16    7.64    3.92
  16   2 -16   -1.85    1.45
 -16   2  16    5.24    3.71
  16   2 -16    0.98    3.24
 -14  -2  16   11.50    4.12
  14  -2 -16   14.51    6.08
 -14  -2  16   15.19    3.66
  14  -2 -16   18.96    3.44
 -14   2  16   16.06    4.24
  14   2 -16   12.08    2.40
  14   2 -16    8.87    3.50
 -14   2  16   13.54    4.04
  12  -2 -16    4.69    2.55
  12  -2 -16   12.37    3.48
 -12  -2  16   10.67    3.74
 -12  -2  16   13.36    3.47
 -12   2  16   15.67    3.73
  12   2 -16   10.78    3.37
  12   2 -16   10.19    2.59
 -12   2  16    6.11    3.45
  10  -2 -16   19.37    3.76
 -10  -2  16   22.90    4.47
  10  -2 -16   20.70    3.95
 -10  -2  16   23.55    4.00
  10   2 -16   27.61    4.11
 -10   2  16   24.43    4.20
 -10   2  16   23.33    4.09
  10   2 -16   28.13    3.73
   8  -2 -16    8.28    3.28
   8  -2 -16    9.24    3.26
  -8  -2  16    1.91    2.89
  -8  -2  16    7.89    3.48
   8   2 -16    2.43    3.21
  -8   2  16    7.49    2.95
  -8   2  16    6.66    2.92
   8   2 -16    1.64    2.91
   6  -2 -16  131.96    8.32
  -6  -2  16  137.10    8.24
  -6  -2  16  119.20    8.57
   6  -2 -16  130.08    9.18
   6   2 -16  153.51    8.43
  -6   2  16  138.09    8.34
   6   2 -16  150.22    9.13
   6   2 -16  133.11    8.56
  -6   2  16  134.93    8.07
   4  -2 -16   54.29    5.95
   4  -2 -16   69.35    7.40
  -4  -2  16   60.17    6.10
  -4   2  16   65.12    6.07
   4   2 -16   60.41    6.20
   4   2 -16   61.94    6.93
  -4   2  16   71.96    5.94
   4   2 -16   73.15    6.03
   2  -2 -16   15.31    5.12
   2  -2 -16   15.65    3.74
  -2  -2  16    6.23    2.98
   2   2 -16   14.80    4.77
  -2   2  16    6.28    2.77
  -2   2  16   17.42    3.50
   2   2 -16    6.53    3.19
   2   2 -16   14.58    3.75
   0  -2  16   22.66    4.25
   0  -2 -16   20.77    4.58
   0  -2 -16   23.24    5.63
   0   2 -16   27.98    5.96
   0   2 -16   19.03    4.25
   0   2 -16   30.63    4.69
   0   2  16   28.31    4.20
   0   2  16   21.35    3.85
   2  -2  16   13.97    3.78
  -2  -2 -16   19.00    6.40
  -2  -2 -16   16.42    4.57
   2   2  16   26.17    4.35
  -2   2 -16   20.54    5.94
  -2   2 -16   22.29    4.48
  -2   2 -16   16.39    4.19
   2   2  16   15.26    3.47
   4  -2  16    6.18    3.29
  -4  -2 -16   10.60    4.48
   4   2  16    8.69    3.95
  -4   2 -16    0.09    3.73
   4   2  16    8.41    3.41
  -4   2 -16   11.22    4.25
   6  -2  16    0.33    3.22
  -6  -2 -16    2.97    4.31
  -6   2 -16   -1.03    4.05
  -6   2 -16    1.83    4.70
   6   2  16   -0.04    3.69
   8  -2  16    4.06    3.86
  -8  -2 -16   -0.38    4.31
  -8   2 -16    3.14    5.05
   8   2  16   -9.94    3.80
  10  -2  16    1.54    4.08
 -10  -2 -16    5.87    5.69
  10   2  16    6.77    6.00
  19  -3 -16    9.49    4.54
  19  -3 -16   -4.93    4.00
 -19  -3  16   -2.63    3.72
 -19  -3  16    5.58    4.95
  19  -3 -16    0.77    3.25
 -19   3  16   -3.15    3.97
  19   3 -16    3.38    2.73
  17  -3 -16   -0.39    3.74
  17  -3 -16    5.28    3.94
  17  -3 -16    2.68    2.90
 -17  -3  16    1.93    4.16
 -17   3  16   -1.98    3.47
  17   3 -16   -0.54    2.36
  17   3 -16    7.82    4.28
  15  -3 -16    2.47    3.76
  15  -3 -16    1.41    2.95
 -15  -3  16    3.97    3.89
  15  -3 -16    0.64    3.40
 -15   3  16   -2.31    3.21
  15   3 -16    3.97    3.33
  15   3 -16    3.88    2.59
 -13  -3  16    7.35    3.77
 -13  -3  16    4.96    3.01
  13  -3 -16    4.89    3.04
 -13   3  16   12.49    3.80
  13   3 -16    7.87    3.67
  13   3 -16    1.97    2.63
 -13   3  16   14.17    4.08
  11  -3 -16    0.85    2.85
 -11  -3  16   -3.71    2.77
  11  -3 -16    3.43    3.05
 -11  -3  16    0.36    2.69
 -11   3  16    0.63    3.02
  11   3 -16    2.55    2.78
 -11   3  16    3.48    3.15
  11   3 -16    4.66    3.01
  -9  -3  16  171.64    9.87
  -9  -3  16  200.69   11.21
   9  -3 -16  174.69   10.53
   9  -3 -16  183.02   10.19
  -9   3  16  176.40   10.14
   9   3 -16  195.65   10.29
   9   3 -16  184.70   10.17
  -9   3  16  192.76   10.47
   7  -3 -16   47.28    5.44
   7  -3 -16   34.25    5.53
  -7  -3  16   36.36    5.22
  -7  -3  16   41.78    4.94
  -7   3  16   48.79    5.30
  -7   3  16   40.40    4.96
   7   3 -16   32.88    5.24
   7   3 -16   42.21    5.17
  -5  -3  16   39.66    4.96
   5  -3 -16   41.47    5.22
  -5  -3  16   38.16    5.13
   5  -3 -16   43.25    6.25
   5   3 -16   48.32    6.37
   5   3 -16   45.33    5.29
  -5   3  16   44.62    4.85
  -5   3  16   47.20    5.19
   3  -3 -16    4.00    3.25
   3  -3 -16   11.75    4.70
  -3  -3  16    5.87    3.28
   3   3 -16    2.31    3.34
   3   3 -16   10.94    4.63
  -3   3  16    0.41    2.70
   3   3 -16    6.72    3.49
  -3   3  16    5.06    2.71
   1  -3 -16    5.31    4.79
  -1  -3  16    1.51    3.05
   1  -3 -16    2.37    3.18
   1   3 -16    2.95    3.31
  -1   3  16   -3.04    2.47
   1   3 -16   -0.23    4.44
   1   3 -16    3.13    3.28
  -1   3  16    2.53    2.63
  -1  -3 -16    4.91    4.01
  -1  -3 -16   12.41    5.20
   1  -3  16    5.89    3.67
   1   3  16    8.25    3.78
  -1   3 -16    3.92    3.64
  -1   3 -16    7.09    3.54
   1   3  16    8.74    3.09
  -1   3 -16    3.01    5.03
   3  -3  16    2.39    3.08
  -3  -3 -16   -4.17    3.32
  -3   3 -16    2.91    5.81
   3   3  16    8.86    3.81
  -3   3 -16    7.82    3.79
   3   3  16    1.26    2.84
  -3   3 -16    6.04    3.74
   5  -3  16   -3.84    3.19
  -5  -3 -16   -4.99    3.71
   5   3  16   -2.62    3.34
  -5   3 -16   -1.76    4.54
  -5   3 -16    1.13    3.69
   7  -3  16    3.37    3.74
  -7  -3 -16    4.98    4.82
  -7   3 -16    1.60    4.10
   7   3  16   -7.42    3.57
  -9  -3 -16   13.97    5.53
   9  -3  16    4.97    4.12
  -9   3 -16    2.32    4.59
   9   3  16    7.49    4.57
  18  -4 -16   -0.70    3.68
  18  -4 -16    0.92    3.68
 -18  -4  16   -5.21    4.17
  18  -4 -16   -7.24    2.99
  18   4 -16    2.32   10.51
 -18   4  16   -1.59    4.22
  18   4 -16    1.24    3.25
  16  -4 -16    7.86    3.94
  16  -4 -16    8.13    4.27
 -16  -4  16    0.78    4.45
  16  -4 -16   10.48    4.32
  16   4 -16    5.60    3.19
  16   4 -16    7.85    4.37
 -16   4  16    4.21    3.94
  14  -4 -16   -0.86    3.23
  14  -4 -16    7.60    3.78
 -14  -4  16    6.10    4.17
  14  -4 -16    8.42    4.09
  14   4 -16   10.36    3.99
 -14   4  16   10.26    4.25
  14   4 -16   11.00    3.53
 -12  -4  16   35.03    5.77
  12  -4 -16   31.41    5.34
 -12  -4  16   34.27    4.91
 -12   4  16   42.33    5.76
  12   4 -16   37.89    5.49
 -12   4  16   49.17    5.94
  12   4 -16   47.72    5.52
 -10  -4  16    3.53    3.53
  10  -4 -16    5.78    3.28
  10  -4 -16    0.28    3.55
 -10  -4  16    4.44    3.06
 -10   4  16    7.21    3.25
  10   4 -16   10.42    3.75
 -10   4  16    4.20    3.28
  10   4 -16    1.01    3.26
  -8  -4  16    3.87    3.15
   8  -4 -16    1.33    2.86
  -8  -4  16   -0.43    2.60
   8  -4 -16    1.73    3.86
   8   4 -16   -0.22    3.29
  -8   4  16   -4.25    2.60
   8   4 -16   -2.35    2.97
  -8   4  16    3.71    3.14
  -6  -4  16    0.68    3.02
   6  -4 -16   10.10    3.67
  -6  -4  16    5.29    3.19
   6  -4 -16    6.43    4.35
  -6   4  16    7.90    3.39
   6   4 -16    5.80    4.02
   6   4 -16    4.36    3.49
  -6   4  16    4.55    3.25
  -4  -4  16   18.77    4.29
  -4  -4  16   20.10    4.17
   4  -4 -16   17.41    4.22
   4  -4 -16   13.19    5.00
   4   4 -16   24.22    5.57
  -4   4  16   14.61    4.04
   4   4 -16   17.12    4.30
  -4   4  16   12.97    3.56
  -2  -4  16   23.23    4.59
  -2  -4  16   23.91    4.51
   2  -4 -16   33.45    6.58
   2  -4 -16   30.18    5.09
  -2   4  16   21.80    3.82
   2   4 -16   31.11    5.09
   2   4 -16   27.81    6.34
  -2   4  16   30.79    4.70
   2   4 -16   29.72    4.93
   0  -4 -16   32.94    6.77
   0  -4  16   15.89    4.16
   0  -4 -16   12.64    4.16
   0   4 -16   17.37    4.70
   0   4  16   25.02    4.77
   0   4 -16   21.32    6.69
   0   4 -16   17.92    4.50
   0   4  16   20.88    3.89
  -2  -4 -16    1.31    3.76
   2  -4  16    1.62    3.36
  -2   4 -16    6.82    4.17
   2   4  16   -1.63    3.17
  -2   4 -16    2.78    5.53
   2   4  16   -1.25    3.35
  -2   4 -16   -1.17    3.05
   4  -4  16   -0.28    3.21
  -4  -4 -16    3.59    5.18
  -4   4 -16   -2.71    3.32
   4   4  16    4.04    3.84
   6  -4  16    4.04    3.90
  -6  -4 -16    2.04    4.90
   6   4  16   12.97    4.71
  -6   4 -16    9.67    4.63
   8  -4  16   10.96    4.57
  -8  -4 -16    4.09    5.17
   8   4  16   12.99    5.56
  -8   4 -16   20.52    5.73
  17  -5 -16   -0.15    4.25
  17  -5 -16    0.18    3.84
 -17  -5  16   -1.16    4.38
  17  -5 -16   -1.67    3.80
  17   5 -16    1.73    3.53
 -17   5  16   -2.28    3.94
  17   5 -16    0.49    4.39
 -15  -5  16    1.63    4.38
  15  -5 -16    1.62    3.83
  15  -5 -16   -4.08    3.33
  15  -5 -16    0.73    3.82
  15   5 -16   -0.63    3.46
 -15   5  16    2.61    4.26
  15   5 -16   -2.32    4.02
  13  -5 -16   -2.93    3.82
 -13  -5  16    0.14    4.03
  13  -5 -16   -4.01    3.17
  13  -5 -16    1.88    3.54
  13   5 -16   -3.53    3.45
 -13   5  16   -1.32    3.57
  13   5 -16   -2.51    3.65
 -11  -5  16    0.88    4.05
  11  -5 -16    0.64    3.45
 -11  -5  16    3.23    3.70
  11  -5 -16    5.49    4.44
  11  -5 -16   -6.62    3.28
  11   5 -16   -0.94    3.63
 -11   5  16   -1.53    3.04
  11   5 -16    1.05    3.54
   9  -5 -16   34.30    5.17
  -9  -5  16   24.43    4.96
   9  -5 -16   21.90    5.57
  -9  -5  16   22.88    4.30
  -9   5  16   29.65    5.14
   9   5 -16   32.13    5.24
   9   5 -16   21.11    5.23
  -9   5  16   23.58    4.71
  -7  -5  16   19.71    4.27
   7  -5 -16   17.68    4.85
  -7  -5  16   22.94    4.75
   7  -5 -16   25.23    6.05
   7   5 -16   15.02    5.11
  -7   5  16   28.82    4.96
  -7   5  16   16.67    3.98
   7   5 -16   22.19    4.70
   5  -5 -16   -1.16    4.71
   5  -5 -16    3.93    3.13
  -5  -5  16   -1.33    3.41
  -5  -5  16    1.33    3.09
  -5   5  16    1.09    2.96
   5   5 -16    1.20    3.56
   5   5 -16    8.70    4.97
  -5   5  16   -5.52    2.97
   3  -5 -16   -1.28    3.30
  -3  -5  16    1.43    3.35
   3  -5 -16   10.48    5.71
  -3  -5  16    6.03    3.56
  -3   5  16    2.80    3.50
  -3   5  16    3.89    3.04
   3   5 -16    6.55    5.05
   3   5 -16   -2.41    3.56
  -1  -5  16    6.65    3.52
   1  -5 -16   -3.94    3.25
  -1  -5  16    6.61    3.74
   1  -5 -16    6.57    5.53
  -1   5  16    2.52    3.00
   1   5 -16    1.26    5.30
  -1   5  16   -1.16    3.41
   1   5 -16    6.89    3.92
  -1  -5 -16   -0.07    3.51
   1  -5  16    1.65    3.71
   1   5  16    0.51    3.59
  -1   5 -16    1.45    3.86
  -1   5 -16   10.03    6.44
  -1   5 -16    0.70    3.61
   3  -5  16    1.85    3.42
  -3  -5 -16   -3.43    3.97
  -3   5 -16    2.55    3.72
   3   5  16   -0.44    3.78
  -5  -5 -16   -1.88    4.51
   5  -5  16    0.59    3.72
  -5   5 -16    3.38    4.28
   5   5  16    0.38    4.14
   7  -5  16   -0.31    4.32
  -7  -5 -16    2.12    5.36
  -7   5 -16    1.79    4.80
   7   5  16    3.95    4.97
 -16  -6  16   -2.15    4.97
  16  -6 -16   -3.39    3.79
  16  -6 -16    5.07    4.10
  16  -6 -16    0.32    5.33
 -16   6  16   -3.27    4.11
  16   6 -16    8.32    4.80
  16   6 -16   -0.25    4.04
 -14  -6  16   -0.84    4.83
  14  -6 -16    2.01    4.15
  14  -6 -16    3.09    4.17
  14  -6 -16    3.80    5.55
  14   6 -16   -3.98    3.70
  14   6 -16   -3.17    3.81
 -14   6  16   -3.55    4.09
  12  -6 -16    2.49    4.18
  12  -6 -16   -0.11    5.16
  12  -6 -16   -2.52    3.74
 -12  -6  16    2.72    4.46
 -12   6  16   -5.66    3.40
  12   6 -16   -0.15    3.81
  12   6 -16    0.43    4.00
  10  -6 -16   -3.15    3.65
  10  -6 -16   -2.13    4.83
  10  -6 -16   -1.31    4.04
 -10  -6  16    4.07    3.86
  10   6 -16    3.01    3.83
  10   6 -16   -6.61    3.94
 -10   6  16    0.55    3.80
   8  -6 -16   -1.88    3.66
   8  -6 -16   -2.91    3.12
   8  -6 -16   -1.62    3.79
  -8  -6  16   -3.94    3.11
   8  -6 -16    4.69    5.44
  -8  -6  16   -0.54    3.29
   8   6 -16    5.75    5.27
  -8   6  16   -3.02    3.24
   8   6 -16    2.11    3.91
   6  -6 -16   20.87    7.33
  -6  -6  16   17.15    4.32
   6  -6 -16   18.21    4.75
  -6  -6  16   25.94    5.06
   6   6 -16   20.17    6.45
  -6   6  16   23.73    4.89
  -6   6  16   23.95    4.71
   6   6 -16   21.93    5.33
   4  -6 -16    6.40    3.95
   4  -6 -16   11.03    5.84
  -4  -6  16    8.73    3.97
  -4  -6  16   -4.48    3.29
   4   6 -16   11.54    5.97
  -4   6  16   10.54    4.15
   4   6 -16   -0.07    3.90
  -4   6  16    5.68    3.09
   2  -6 -16    8.97    6.17
  -2  -6  16    6.41    3.94
  -2  -6  16    9.21    4.15
   2  -6 -16    4.96    3.99
  -2   6  16   12.55    3.89
   2   6 -16    3.22    4.00
   2   6 -16   12.05    6.15
  -2   6  16    3.67    3.98
   0  -6 -16   -4.56    3.32
   0  -6  16    4.48    3.81
   0  -6  16    0.85    3.74
   0   6  16    3.84    3.85
   0   6 -16    4.41    4.11
   0   6 -16    2.13    6.07
  -2  -6 -16   -0.32    3.60
   2  -6  16    1.33    4.49
  -2   6 -16    0.99    3.91
   2   6  16    3.29    4.45
   4  -6  16    0.40    4.21
  -4  -6 -16   -1.14    4.73
   4   6  16   -0.50    4.26
  -4   6 -16    2.69    4.20
  13  -7 -16   -1.45    4.73
  13  -7 -16    6.64    6.40
  13  -7 -16   -3.73    4.08
 -13  -7  16    9.76    5.51
  13   7 -16   -3.30    4.45
 -13   7  16    2.34    4.40
  13   7 -16   -8.27    4.32
 -11  -7  16   -1.04    3.86
  11  -7 -16    5.63    6.33
  11  -7 -16    0.48    4.71
  11  -7 -16    3.27    4.53
  11   7 -16    7.62    5.00
 -11   7  16    7.01    4.38
  11   7 -16   -0.70    5.63
   9  -7 -16   15.66    5.43
   9  -7 -16    7.58    5.31
   9  -7 -16    9.59    6.59
  -9  -7  16    4.16    4.16
  -9   7  16   11.55    4.97
   9   7 -16   10.47    6.27
   9   7 -16   11.20    5.08
   7  -7 -16   11.53    4.74
   7  -7 -16   11.94    5.02
   7  -7 -16    5.78    4.06
  -7  -7  16   13.45    4.93
  -7  -7  16    6.80    4.43
   7  -7 -16   18.91    7.56
   7   7 -16    3.73    4.48
   7   7 -16    9.00    6.26
  -7   7  16   11.53    4.67
  -5  -7  16    1.79    3.80
   5  -7 -16    8.02    4.80
   5  -7 -16    0.10    3.95
   5  -7 -16    1.53    4.05
  -5  -7  16    3.38    3.58
   5  -7 -16    0.50    6.48
  -5   7  16    2.73    4.35
   5   7 -16    0.12    5.89
   5   7 -16    6.46    4.58
  -3  -7  16   -2.64    3.48
   3  -7 -16   -3.10    4.42
   3  -7 -16    4.87    4.20
   3  -7 -16    3.12    4.14
   3  -7 -16    6.39    6.98
  -3  -7  16   -2.75    3.22
   3   7 -16   -1.78    6.37
  -3   7  16   -1.07    3.83
   3   7 -16    4.20    4.39
  -1  -7  16    2.29    4.72
  -1  -7  16    6.30    4.33
   1  -7 -16   -0.13    4.01
   1   7 -16    2.64    4.68
   1   7 -16    1.55    7.17
  -1   7  16    0.26    4.25
  -1  -7 -16    7.55    4.85
   1  -7  16   -0.16    4.39
   1   7  16    0.18    4.10
  -1   7 -16    5.26    4.78
   3  -7  16   -8.23    4.32
  -3  -7 -16   -4.95    3.77
   3   7  16    4.16    4.46
  -3   7 -16   -5.02    4.07
 -10  -8  16    1.64    4.12
  10  -8 -16    3.37    5.00
  10  -8 -16    4.67    5.73
  10  -8 -16   -0.25    6.82
 -10   8  16    7.00    5.01
  10   8 -16   -2.52    4.82
  10   8 -16   -3.23    6.08
   8  -8 -16    8.42    5.52
   8  -8 -16    2.34    4.72
  -8  -8  16    7.62    5.04
   8  -8 -16   -4.12    6.99
   8   8 -16    0.98    4.47
   8   8 -16    5.78    6.81
  -8   8  16    1.70    4.90
   6  -8 -16    2.08    5.28
   6  -8 -16    2.36    7.63
   6  -8 -16    0.63    4.60
   6  -8 -16    0.47    4.46
  -6  -8  16    3.68    4.33
  -6  -8  16   -2.54    5.34
  -6   8  16    2.88    4.45
   6   8 -16    8.88    6.94
   6   8 -16    2.42    5.05
  -4  -8  16    2.93    4.77
   4  -8 -16    6.11    4.66
  -4  -8  16    0.39    4.15
   4   8 -16    6.08    7.23
   4   8 -16   -5.61    4.35
  -4   8  16    7.61    4.80
  -2  -8  16   -7.51    4.16
  -2  -8  16    3.29    4.42
   2  -8 -16    5.94    4.77
  -2   8  16    0.44    4.30
   2   8 -16    1.27    7.84
   2   8 -16   -2.04    4.49
   0  -8  16   -2.11    4.60
   0  -8 -16    6.19    4.72
   0   8  16   -1.98    4.90
   0   8 -16   -2.65    4.52
 -20   0  17    0.99    5.06
  20   0 -17    0.47    2.17
 -18   0  17    0.02    3.54
 -18   0  17   -0.54    4.31
 -16   0  17    1.75    3.99
  16   0 -17   -0.58    1.51
 -16   0  17   -2.57    3.28
  16   0 -17    1.54    3.74
  14   0 -17   -0.44    1.98
 -14   0  17   -2.41    2.95
 -14   0  17   -3.33    5.19
  14   0 -17   -2.30    2.73
  12   0 -17   -4.41    1.84
 -12   0  17   -0.91    2.62
  12   0 -17   -1.51    2.76
  10   0 -17    1.35    2.44
  10   0 -17   -2.80    2.66
 -10   0  17   -1.52    2.83
   8   0 -17   -1.81    2.48
  -8   0  17    1.48    2.82
   8   0 -17    0.32    2.44
   6   0 -17    1.15    3.24
   6   0 -17    0.79    2.83
  -6   0  17   -2.77    2.46
  -4   0  17    6.99    3.01
   4   0 -17    0.29    2.88
   4   0 -17    5.59    3.78
  -2   0  17    0.16    2.61
   2   0 -17    0.75    4.18
   2   0 -17    0.00    3.09
   0   0 -17   -4.61    4.04
   0   0  17   -0.72    2.53
   0   0 -17   -0.82    3.21
  -2   0 -17    5.87    3.83
  -2   0 -17    1.27    4.89
   2   0  17   -3.57    2.37
   4   0  17    5.27    3.24
  -4   0 -17    1.60    3.85
  -6   0 -17   -0.28    4.04
   6   0  17   -3.47    2.78
  -8   0 -17    2.01    6.12
  21  -1 -17   -1.03    2.52
  19  -1 -17    0.72    3.92
  19  -1 -17   -2.47    2.05
  19  -1 -17    0.28    3.90
 -19   1  17   -0.29    4.46
 -17  -1  17    2.87    3.80
  17  -1 -17   -1.30    2.08
 -17  -1  17    2.21    3.93
 -17   1  17   -1.31    3.24
 -17   1  17   -0.03    3.54
 -15  -1  17    5.15    3.64
 -15  -1  17    0.37    3.06
  15  -1 -17   -1.69    3.33
  15  -1 -17    3.57    2.16
 -15   1  17   -0.37    3.10
 -15   1  17   -2.06    3.32
  15   1 -17    1.12    1.59
  13  -1 -17   -0.19    2.56
  13  -1 -17    2.22    2.26
 -13  -1  17    4.48    3.57
 -13  -1  17    1.11    2.78
 -13   1  17    3.32    3.36
 -13   1  17    1.66    3.22
  13   1 -17    1.30    2.04
 -11  -1  17    2.69    2.80
 -11  -1  17   -0.06    3.21
  11  -1 -17    2.33    2.56
  11  -1 -17    0.69    2.68
 -11   1  17    2.21    3.00
  11   1 -17    5.32    2.45
  11   1 -17    4.15    2.97
 -11   1  17    1.09    2.81
  -9  -1  17    8.88    3.14
   9  -1 -17    9.50    3.32
   9  -1 -17   11.52    3.49
  -9   1  17    6.21    3.24
   9   1 -17    8.14    2.90
  -9   1  17    5.41    3.06
   9   1 -17    9.53    3.40
  -7  -1  17   26.64    4.18
   7  -1 -17   24.12    4.52
   7  -1 -17   25.00    4.23
  -7   1  17   25.90    4.25
   7   1 -17   20.73    4.10
  -7   1  17   27.05    4.08
   7   1 -17   28.79    4.52
   5  -1 -17    3.30    2.93
   5  -1 -17   12.20    4.11
  -5  -1  17   10.13    3.40
  -5   1  17   14.09    3.43
   5   1 -17    7.54    3.75
   5   1 -17   10.83    3.40
  -5   1  17    8.50    3.16
   3  -1 -17    1.68    2.86
  -3  -1  17    2.69    2.79
   3  -1 -17    0.50    3.82
  -3   1  17   -2.40    2.32
   3   1 -17   -2.18    3.80
   3   1 -17   -3.40    2.77
   1  -1 -17    2.18    4.30
  -1  -1  17   -1.76    2.60
   1  -1 -17    2.91    3.37
   1   1 -17    1.85    3.53
  -1   1  17   -5.54    2.34
   1   1 -17    3.50    4.93
  -1  -1 -17    2.46    3.69
   1  -1  17    5.64    3.10
  -1  -1 -17   -1.08    4.17
   1   1  17    3.45    2.93
  -1   1 -17    6.04    5.27
  -1   1 -17    7.74    4.07
   3  -1  17    3.93    3.14
  -3  -1 -17   -2.13    3.35
  -3  -1 -17   -2.45    6.02
  -3   1 -17    5.44    4.12
  -3   1 -17   -0.50    6.25
   3   1  17    2.42    2.94
  -5  -1 -17   -4.71    3.99
   5  -1  17   -1.68    3.20
  -5   1 -17    1.74    4.04
   5   1  17    3.87    3.31
  -7  -1 -17   -6.80    4.11
   7  -1  17   -0.39    3.44
  -7   1 -17    1.36    8.86
  -9  -1 -17    4.09    6.74
   9  -1  17   -1.45    4.78
  20  -2 -17    5.52    4.55
 -20  -2  17    0.02    8.45
  20  -2 -17   -0.98    4.16
  20  -2 -17    8.03    3.09
 -20   2  17    8.61    5.01
 -18  -2  17    9.08    4.84
  18  -2 -17   23.64    3.81
  18  -2 -17   16.42    5.16
  18  -2 -17   19.79    4.87
 -18   2  17   20.42    5.23
  18   2 -17   15.72    6.56
 -16  -2  17    3.15    3.84
  16  -2 -17    6.52    2.99
 -16  -2  17    5.70    4.35
  16   2 -17    8.22    2.12
 -16   2  17    4.81    3.85
  16   2 -17    5.49    4.95
 -16   2  17    2.62    3.85
  14  -2 -17    3.07    2.68
 -14  -2  17    6.95    3.29
  14  -2 -17   -1.53    3.46
 -14  -2  17    1.99    3.66
 -14   2  17    2.69    3.53
  14   2 -17    6.60    4.39
 -14   2  17   12.73    4.13
  14   2 -17   -2.47    2.05
 -12  -2  17    5.85    3.36
  12  -2 -17    3.40    2.68
  12  -2 -17    5.88    3.03
 -12  -2  17    1.65    3.18
  12   2 -17    3.71    4.57
 -12   2  17    2.30    3.26
  12   2 -17    3.10    2.45
 -12   2  17    8.12    3.23
 -10  -2  17   19.10    4.49
  10  -2 -17   16.34    3.82
 -10  -2  17   17.23    3.78
  10  -2 -17   18.23    3.83
 -10   2  17   22.05    4.20
  10   2 -17   21.61    3.91
 -10   2  17   25.28    4.23
   8  -2 -17   13.61    3.54
   8  -2 -17    9.93    3.68
  -8  -2  17    9.36    3.40
  -8  -2  17    3.11    3.39
  -8   2  17    3.64    2.80
  -8   2  17    5.24    3.07
   8   2 -17    6.66    3.36
   6  -2 -17   13.80    4.58
   6  -2 -17   16.42    3.87
  -6  -2  17   12.35    3.59
  -6   2  17    9.41    3.32
   6   2 -17   10.97    4.24
  -6   2  17   15.94    3.47
   6   2 -17   11.41    3.83
   4  -2 -17   92.49    8.53
   4  -2 -17   81.24    7.21
  -4  -2  17   82.65    7.19
   4   2 -17   82.12    7.39
  -4   2  17   85.55    6.70
   4   2 -17   74.86    7.96
  -4   2  17   59.90    6.02
  -2  -2  17   67.33    6.45
   2  -2 -17   93.63    9.27
   2  -2 -17   61.73    6.67
  -2   2  17   81.35    6.86
   2   2 -17   65.23    7.91
  -2   2  17   84.12    6.66
   2   2 -17   74.77    7.21
   0  -2  17    2.68    2.98
   0  -2 -17    1.08    4.38
   0  -2 -17    5.22    3.74
   0   2  17    7.32    3.02
   0   2  17    8.56    3.62
   0   2 -17    0.74    3.26
   0   2 -17    5.41    5.15
  -2  -2 -17    2.00    5.80
  -2  -2 -17    1.09    3.78
   2  -2  17    3.77    3.34
  -2   2 -17    7.47    4.09
  -2   2 -17   -2.26    4.53
   2   2  17    2.92    3.30
   2   2  17    2.52    2.85
  -4  -2 -17   -1.10    4.32
   4  -2  17   -0.34    3.47
   4   2  17    3.03    3.07
  -4   2 -17   -0.26    4.03
   4   2  17   -0.46    3.90
  -6  -2 -17   -0.98    4.39
   6  -2  17    7.63    4.05
   6   2  17   16.07    5.65
  -8  -2 -17    3.81    5.05
   8  -2  17    0.57    3.93
  19  -3 -17   -0.39    3.72
 -19  -3  17    1.98    4.53
  19  -3 -17    1.99    3.91
  19  -3 -17    4.39    4.27
  19   3 -17    3.17    4.87
  19   3 -17    3.23    2.82
 -19   3  17    7.23    5.04
  17  -3 -17    5.59    3.37
  17  -3 -17    5.17    4.21
  17  -3 -17    4.91    3.96
 -17  -3  17    6.63    4.39
  17   3 -17    5.30    2.85
  17   3 -17    4.59    4.45
 -17   3  17    6.69    4.32
 -15  -3  17    1.77    3.91
  15   3 -17    2.25    2.79
 -15   3  17   -1.59    3.78
 -15   3  17   -1.54    3.25
  15   3 -17    3.53    3.89
  13  -3 -17   42.40    5.38
 -13  -3  17   36.31    4.97
  13  -3 -17   35.34    5.51
 -13  -3  17   22.06    4.87
  13   3 -17   30.49    4.16
 -13   3  17   22.35    5.16
  13   3 -17   25.11    4.90
 -13   3  17   32.09    5.30
 -11  -3  17   -1.76    2.83
  11  -3 -17    5.25    3.14
  11  -3 -17   -1.16    2.73
 -11  -3  17   -2.58    3.35
 -11   3  17   -7.62    2.73
  11   3 -17    3.45    3.33
  11   3 -17    0.81    2.74
 -11   3  17    4.57    3.66
  -9  -3  17    3.49    2.90
   9  -3 -17   -2.31    3.26
  -9  -3  17   -1.77    3.33
   9  -3 -17   -0.44    2.81
   9   3 -17   -5.15    2.98
  -9   3  17   -1.24    3.12
   9   3 -17    5.41    3.39
  -9   3  17    2.77    3.00
   7  -3 -17   15.72    3.99
   7  -3 -17    9.23    4.30
  -7  -3  17   12.13    3.65
  -7  -3  17   10.81    3.73
  -7   3  17   14.97    3.60
   7   3 -17   10.51    4.21
   7   3 -17   25.14    4.47
  -7   3  17   11.06    3.59
  -5  -3  17   30.39    5.00
  -5  -3  17   24.82    4.58
   5  -3 -17   37.92    6.48
   5  -3 -17   31.46    4.95
  -5   3  17   35.03    4.74
   5   3 -17   33.11    5.15
   5   3 -17   38.96    5.22
   5   3 -17   37.54    6.07
  -5   3  17   22.18    4.04
   3  -3 -17    5.32    3.53
  -3  -3  17    7.22    3.38
   3  -3 -17    5.83    4.78
  -3   3  17    7.42    3.17
   3   3 -17    4.69    4.77
  -3   3  17    7.93    3.42
   3   3 -17    7.82    3.63
   3   3 -17    6.53    3.78
   1  -3 -17    1.03    5.17
  -1  -3  17    2.25    3.34
   1  -3 -17    4.09    3.32
  -1   3  17    0.65    2.99
   1   3 -17    1.22    3.37
   1   3 -17    8.05    5.08
  -1   3  17    1.49    2.81
   1   3 -17    2.42    3.49
   1  -3  17    2.84    3.45
  -1  -3 -17    0.60    5.22
  -1  -3 -17    5.87    4.10
  -1   3 -17    3.50    3.71
  -1   3 -17    5.80    3.99
   1   3  17    3.62    3.05
  -1   3 -17   13.42    5.76
   1   3  17    3.59    3.57
  -3  -3 -17    3.94    3.95
   3  -3  17    5.65    3.43
   3   3  17   -0.38    3.57
  -3   3 -17    1.19    3.94
   3   3  17    0.07    3.31
  -3   3 -17    3.18    7.84
  -3   3 -17    5.53    4.20
   5  -3  17    6.96    3.89
  -5  -3 -17   -1.14    4.34
  -5   3 -17    7.97    4.83
   5   3  17    1.25    4.28
   7  -3  17    1.03    3.73
  -7  -3 -17    1.51    5.32
  -7   3 -17   -2.75    5.01
   7   3  17   -4.40    4.04
  18  -4 -17   -5.27    3.58
  18  -4 -17    2.62    4.02
 -18  -4  17    0.39    4.25
  18  -4 -17    7.72    4.43
  18   4 -17   -5.12    3.06
 -18   4  17    4.18    4.68
  18   4 -17    7.24    4.84
  16  -4 -17    0.01    4.11
 -16  -4  17    8.56    4.39
  16  -4 -17   -1.05    3.32
  16  -4 -17    3.87    4.09
  16   4 -17    5.48    3.26
  16   4 -17   -1.69    3.78
 -16   4  17    0.88    3.87
  14  -4 -17    6.70    3.90
  14  -4 -17    4.09    3.50
 -14  -4  17   -0.20    3.94
  14  -4 -17    2.71    3.43
 -14   4  17    6.94    4.18
  14   4 -17    1.51    3.03
  14   4 -17    5.04    3.97
 -12  -4  17   21.03    4.96
 -12  -4  17   21.21    4.24
  12  -4 -17   15.06    4.59
 -12   4  17    5.89    3.93
  12   4 -17    8.57    3.85
  12   4 -17   12.62    3.99
 -12   4  17   18.51    4.51
  10  -4 -17   11.12    3.94
  10  -4 -17    1.26    3.92
 -10  -4  17    1.59    3.48
 -10  -4  17    7.10    3.44
  10   4 -17   13.04    4.23
 -10   4  17   13.93    3.98
  10   4 -17   12.15    4.18
 -10   4  17    4.89    3.92
   8  -4 -17    4.54    4.16
  -8  -4  17   -6.60    2.85
   8  -4 -17    2.51    3.16
  -8  -4  17    0.92    3.05
   8   4 -17    3.12    3.77
   8   4 -17   -0.56    3.45
  -8   4  17    5.17    3.57
  -8   4  17    3.13    3.06
  -6  -4  17   -1.14    2.89
   6  -4 -17   -1.60    3.03
  -6  -4  17    1.04    3.23
   6  -4 -17    6.20    4.92
   6   4 -17   -1.53    3.26
   6   4 -17   -2.01    3.83
  -6   4  17   -1.72    2.74
  -6   4  17    2.09    3.11
   4  -4 -17   15.06    5.40
   4  -4 -17   12.66    4.03
  -4  -4  17   14.55    4.19
  -4  -4  17   12.86    4.14
   4   4 -17   16.44    5.45
  -4   4  17    5.69    3.62
   4   4 -17   14.12    4.31
  -4   4  17   10.16    3.32
   2  -4 -17   36.96    7.23
  -2  -4  17   36.15    5.45
   2  -4 -17   32.51    5.47
   2   4 -17   40.79    7.12
   2   4 -17   37.83    5.49
  -2   4  17   34.15    5.16
   2   4 -17   39.97    5.88
  -2   4  17   40.99    4.97
   0  -4 -17   -1.68    5.48
   0  -4  17   -1.20    3.55
   0  -4 -17    2.15    3.64
   0   4 -17    3.12    3.67
   0   4 -17    1.80    5.39
   0   4  17    2.25    3.66
   0   4 -17    5.68    3.80
   0   4  17    0.04    2.79
   2  -4  17    0.31    3.42
  -2  -4 -17    1.33    4.09
  -2   4 -17    3.34    3.76
  -2   4 -17    3.15    6.07
   2   4  17   -2.74    3.64
   2   4  17   -1.12    6.02
  -2   4 -17   -2.88    3.62
   4  -4  17    1.49    3.55
  -4  -4 -17    8.39    5.09
   4   4  17    5.90    4.23
  -4   4 -17    8.10    4.60
   6  -4  17    4.63    4.09
  -6  -4 -17   -0.71    5.08
   6   4  17    8.01    4.81
  -6   4 -17    4.08    4.74
 -17  -5  17    1.04    4.77
  17  -5 -17    7.28    4.33
  17  -5 -17    7.98    4.48
  17  -5 -17    6.54    4.13
  17   5 -17   -3.75    4.66
 -17   5  17    0.14    4.59
  17   5 -17    4.18    4.31
  15  -5 -17    8.70    4.29
  15  -5 -17    9.34    4.60
  15  -5 -17    1.52    3.84
 -15  -5  17    2.70    4.88
  15   5 -17    6.05    4.93
 -15   5  17    6.14    4.70
  15   5 -17   10.46    4.30
  13  -5 -17   38.86    6.70
  13  -5 -17   34.54    6.08
 -13  -5  17   43.19    6.77
  13  -5 -17   39.21    6.94
  13   5 -17   42.69    6.08
  13   5 -17   41.00    6.25
 -13   5  17   39.83    6.16
 -11  -5  17    6.47    4.04
 -11  -5  17   -1.98    3.40
 -11   5  17    4.59    3.95
  11   5 -17    4.82    3.83
 -11   5  17   -2.14    3.19
  11   5 -17   11.11    4.52
   9  -5 -17   11.40    4.27
  -9  -5  17   15.36    4.08
  -9  -5  17   10.96    4.22
   9  -5 -17    6.36    5.04
   9   5 -17    4.49    3.94
  -9   5  17    3.08    3.73
   9   5 -17   11.59    5.27
  -9   5  17    6.95    3.37
  -7  -5  17    0.71    3.16
   7  -5 -17    1.04    3.40
  -7  -5  17    3.43    3.78
   7  -5 -17    0.73    4.50
  -7   5  17   -1.42    3.10
   7   5 -17    1.26    3.62
   7   5 -17    1.07    4.23
  -7   5  17    0.83    3.15
   5  -5 -17   -2.02    4.78
  -5  -5  17    3.85    3.57
   5  -5 -17    5.89    3.70
  -5  -5  17    5.84    3.56
  -5   5  17   15.03    3.94
   5   5 -17    8.69    5.59
  -5   5  17    9.87    3.93
   5   5 -17    8.03    4.34
  -3  -5  17   13.09    4.52
   3  -5 -17   26.86    6.92
   3  -5 -17   13.84    4.47
  -3  -5  17   16.36    4.68
  -3   5  17   11.68    4.08
  -3   5  17   17.50    4.12
   3   5 -17   30.82    7.02
   3   5 -17   20.65    5.03
   1  -5 -17   -1.86    3.48
  -1  -5  17    5.91    3.83
   1  -5 -17    2.63    5.59
   1   5 -17    6.71    6.00
  -1   5  17    4.79    3.99
  -1   5  17    0.48    3.00
   1   5 -17   -3.36    3.65
   1   5 -17   -1.71    3.81
  -1  -5 -17   -1.71    3.94
   1  -5  17   -1.82    3.98
   1   5  17    1.73    4.18
  -1   5 -17    0.48    3.92
  -1   5 -17    1.35    3.95
  -1   5 -17    3.26    6.37
  -3  -5 -17    2.07    4.64
   3  -5  17    2.77    3.57
   3   5  17    1.07    4.54
  -3   5 -17    5.36    4.50
  -5  -5 -17    8.03    5.32
   5  -5  17    4.23    4.06
   5   5  17    2.66    5.14
  -5   5 -17    9.29    5.17
  16  -6 -17   -6.60    5.11
  16  -6 -17   -2.53    3.84
  16  -6 -17   -0.87    3.65
 -16  -6  17    0.30    5.07
  16   6 -17    0.78    4.56
  16   6 -17    1.59    4.29
 -16   6  17   -2.44    4.62
  14  -6 -17    2.83    4.28
  14  -6 -17   -1.09    5.32
 -14  -6  17    5.83    4.97
  14  -6 -17    9.06    4.95
  14   6 -17   -5.90    3.79
 -14   6  17    3.64    4.46
  14   6 -17    3.04    4.79
  12  -6 -17   14.44    5.55
 -12  -6  17   -1.18    4.63
  12  -6 -17   -0.20    5.52
  12  -6 -17    7.49    4.82
  12   6 -17    4.01    4.74
 -12   6  17    6.21    4.37
  12   6 -17    0.71    4.32
 -10  -6  17   -0.97    3.56
  10  -6 -17    3.08    4.73
  10  -6 -17   -7.27    4.98
  10  -6 -17    1.87    4.40
  10   6 -17    2.40    5.15
  10   6 -17    4.08    4.29
 -10   6  17   -2.88    3.85
  -8  -6  17   13.47    4.52
   8  -6 -17    4.97    4.06
  -8  -6  17    7.34    3.78
  -8   6  17    9.06    3.60
   8   6 -17   -1.93    5.26
   8   6 -17   11.33    4.78
  -8   6  17   12.11    4.49
   6  -6 -17   -1.16    5.31
  -6  -6  17    5.15    4.11
   6  -6 -17    0.12    3.47
  -6  -6  17    4.44    3.52
  -6   6  17    2.33    4.01
   6   6 -17    3.93    4.44
  -6   6  17   10.10    3.80
   6   6 -17    4.16    5.32
  -4  -6  17   -3.35    3.54
  -4  -6  17    1.98    3.68
   4  -6 -17    7.76    5.70
   4  -6 -17    4.39    3.87
  -4   6  17    5.68    3.47
   4   6 -17    2.21    5.64
  -4   6  17   -0.55    3.74
   4   6 -17    4.82    4.23
  -2  -6  17    9.66    4.52
  -2  -6  17    6.76    4.19
   2  -6 -17    3.65    6.38
   2  -6 -17   -1.64    4.13
   2   6 -17    7.78    4.48
  -2   6  17   -0.41    3.97
   2   6 -17    1.49    6.20
  -2   6  17   -0.02    3.42
   0  -6  17    1.81    4.12
   0  -6 -17   -0.25    3.80
   0   6 -17   -0.20    4.19
   0   6  17    4.34    4.29
   0   6 -17    1.44    6.63
   0   6 -17   -7.17    4.04
  -2  -6 -17    3.84    4.25
   2  -6  17    7.83    4.84
  -2   6 -17    6.91    5.08
   2   6  17    6.60    4.48
  -4  -6 -17   -1.56    5.14
   4  -6  17   -4.52    3.50
   4   6  17    0.92    4.90
  -4   6 -17   -3.05    4.35
 -13  -7  17    8.56    6.08
  13  -7 -17   -1.29    5.07
  13  -7 -17    7.69    6.62
  13  -7 -17    2.41    5.63
  13   7 -17   -0.49    4.97
  13   7 -17    3.26    5.07
 -13   7  17   -3.09    4.44
  11  -7 -17    0.05    4.32
  11  -7 -17   -4.19    4.68
  11  -7 -17   -0.26    5.94
 -11  -7  17    1.55    4.03
  11   7 -17    0.09    5.58
  11   7 -17    1.09    4.34
 -11   7  17   -2.39    3.88
  -9  -7  17    5.51    4.20
   9  -7 -17    3.66    5.24
   9  -7 -17    1.81    6.40
   9  -7 -17    4.74    4.49
   9   7 -17   14.88    6.73
   9   7 -17    4.75    4.96
  -9   7  17    2.54    4.15
  -7  -7  17    4.97    4.24
   7  -7 -17    1.15    5.05
   7  -7 -17    3.96    4.08
   7  -7 -17    9.68    6.80
  -7  -7  17    1.91    4.26
   7  -7 -17   -2.89    4.40
  -7   7  17    0.36    4.16
   7   7 -17    6.29    6.38
   7   7 -17   -7.23    4.30
  -5  -7  17   -0.46    3.98
   5  -7 -17    3.57    6.58
  -5  -7  17   -0.15    3.55
   5  -7 -17    8.29    5.11
   5  -7 -17   -3.31    3.93
   5  -7 -17    4.64    4.36
   5   7 -17    3.41    6.24
   5   7 -17    9.49    4.99
  -5   7  17    1.16    4.19
  -3  -7  17   10.48    4.63
  -3  -7  17   10.98    5.05
   3  -7 -17    5.34    4.16
  -3   7  17    3.30    5.05
   3   7 -17    6.02    6.96
   3   7 -17    6.51    4.98
  -3   7  17    2.80    4.54
  -1  -7  17   22.10    5.73
   1  -7 -17   12.92    5.20
  -1  -7  17    9.11    4.80
  -1   7  17    7.94    5.00
   1   7 -17    4.68    4.79
   1   7 -17    8.95    7.58
  -1  -7 -17    5.28    4.56
   1  -7  17   -2.81    4.50
   1   7  17    4.36    4.87
  -1   7 -17    0.26    4.56
   8  -8 -17    8.23    5.71
  -8  -8  17   -2.44    4.01
   8  -8 -17    1.53    4.92
   8  -8 -17    1.77    7.18
  -8   8  17    2.83    4.93
   8   8 -17    1.99    4.97
   8   8 -17    4.64    6.55
   6  -8 -17  -10.19    4.26
  -6  -8  17    3.46    4.14
   6  -8 -17    1.29    5.10
   6  -8 -17    0.23    5.46
   6  -8 -17    5.80    7.74
  -6  -8  17   -1.98    4.78
   6   8 -17   -6.59    6.25
  -6   8  17    0.56    4.73
   6   8 -17    1.93    4.76
  -4  -8  17    8.43    4.52
  -4  -8  17    0.50    4.72
   4  -8 -17    2.13    4.44
   4   8 -17   -2.46    6.54
   4   8 -17    3.27    4.98
  -4   8  17    4.17    4.72
 -18   0  18   -2.27    3.73
  18   0 -18    1.99    1.91
  16   0 -18    8.86    4.32
 -16   0  18    7.06    4.12
  16   0 -18    8.16    2.27
  14   0 -18   14.18    4.04
 -14   0  18   12.64    4.09
  14   0 -18   10.98    2.68
  12   0 -18   10.67    3.80
 -12   0  18    2.66    2.99
  12   0 -18   10.18    2.83
 -10   0  18    5.90    3.42
  10   0 -18    9.33    2.98
  10   0 -18    6.94    3.13
   8   0 -18    9.66    3.62
  -8   0  18    4.55    3.16
   8   0 -18    8.23    3.56
   6   0 -18   27.50    4.61
   6   0 -18   33.68    5.40
  -6   0  18   34.05    4.74
   4   0 -18  138.03    9.64
  -4   0  18  141.88    8.90
   4   0 -18  155.18   10.68
   2   0 -18    3.07    4.66
   2   0 -18    1.78    3.52
  -2   0  18   -2.70    2.45
   0   0 -18   80.16    7.74
   0   0  18   68.78    6.78
   0   0 -18   76.28    9.28
  -2   0 -18    6.52    5.71
  -2   0 -18    2.58    4.06
   2   0  18   -3.82    2.79
   4   0  18   -1.33    3.23
  -4   0 -18   -6.88    3.81
  -6   0 -18    7.45    4.78
   6   0  18    9.49    4.17
  19  -1 -18   28.63    6.25
  19  -1 -18   41.18    6.48
  19  -1 -18   36.38    3.75
 -19   1  18   22.63    5.96
 -17  -1  18    5.37    4.44
  17  -1 -18    5.87    2.58
 -17  -1  18   -0.36    3.64
  17   1 -18    2.68    1.76
 -17   1  18    5.92    4.20
 -17   1  18    3.17    4.51
  15  -1 -18   -1.56    3.46
 -15  -1  18   -2.61    2.94
 -15  -1  18   -4.38    3.33
  15  -1 -18    3.46    2.49
  15   1 -18    1.47    2.07
 -15   1  18   -4.05    3.60
 -15   1  18    0.25    3.61
  13  -1 -18    7.42    2.90
  13  -1 -18    4.58    3.27
 -13  -1  18   13.55    3.70
  13   1 -18    6.47    2.54
 -13   1  18    3.99    3.59
 -13   1  18    6.94    3.67
  13   1 -18    6.18    3.46
  11  -1 -18    8.59    3.52
  11  -1 -18    7.26    3.07
 -11  -1  18    7.49    3.52
 -11   1  18   10.93    3.93
 -11   1  18    4.69    3.46
  11   1 -18    9.42    3.46
  11   1 -18   13.84    3.20
  -9  -1  18    4.84    3.12
   9  -1 -18   -0.17    2.95
   9  -1 -18    2.04    2.88
   9   1 -18    2.57    2.96
   9   1 -18    1.47    3.13
  -9   1  18   -1.61    2.84
   7  -1 -18   12.23    4.42
   7  -1 -18   28.08    4.69
  -7  -1  18   20.18    4.16
   7   1 -18   28.73    4.75
   7   1 -18   17.48    4.30
  -7   1  18   17.49    3.98
   5  -1 -18   14.50    3.88
   5  -1 -18   11.82    4.64
  -5  -1  18   14.12    3.94
   5   1 -18   12.63    4.53
  -5   1  18   10.15    3.24
   5   1 -18   12.78    4.04
   3  -1 -18    3.41    3.60
  -3  -1  18    3.93    3.12
   3  -1 -18    3.75    4.44
   3   1 -18    4.50    3.48
   3   1 -18    4.08    4.28
  -3   1  18    3.57    3.07
   1  -1 -18    0.81    4.87
  -1  -1  18   -0.04    3.02
   1  -1 -18    0.42    3.44
   1   1 -18   -1.53    4.64
   1   1 -18   -7.94    2.81
  -1   1  18    4.17    2.91
  -1  -1 -18    0.68    3.76
   1  -1  18    4.39    3.26
  -1  -1 -18   -2.59    5.37
  -1   1 -18   -0.48    5.03
  -1   1 -18    0.05    3.79
   1   1  18    0.45    2.84
  -3  -1 -18   10.13    4.79
   3  -1  18    7.38    3.75
   3   1  18    9.62    3.54
  -3   1 -18    1.11   11.78
  -3   1 -18   12.24    4.56
  -5  -1 -18    3.14    4.49
   5  -1  18   -1.93    3.37
   5   1  18    2.03    3.65
  -5   1 -18    2.18    4.34
  -7  -1 -18   -1.17    4.98
   7  -1  18    1.92    3.45
  20  -2 -18    1.99    4.41
  20  -2 -18    2.22    3.35
  20  -2 -18    0.69    4.12
 -20   2  18   -0.06    4.65
  18  -2 -18    8.94    4.59
  18  -2 -18   10.85    3.17
 -18  -2  18   10.96    4.85
  18  -2 -18    6.09    4.28
 -18   2  18    7.85    4.89
 -16  -2  18    8.49    4.48
 -16  -2  18    0.22    3.83
  16  -2 -18    2.02    2.85
 -16   2  18    5.88    4.06
 -16   2  18    3.86    3.89
  16   2 -18    2.35    2.41
 -14  -2  18    0.74    3.37
  14  -2 -18   -1.70    2.55
 -14  -2  18    0.45    3.55
  14  -2 -18   -1.38    3.48
 -14   2  18   -1.71    3.32
  14   2 -18   -1.40    2.41
 -14   2  18    2.33    3.64
  12  -2 -18   12.11    3.81
 -12  -2  18   20.41    4.19
 -12  -2  18   21.25    4.74
  12  -2 -18   12.03    3.78
 -12   2  18   15.35    4.22
  12   2 -18   15.17    3.59
 -12   2  18   14.73    4.05
  10  -2 -18    7.05    3.48
  10  -2 -18    0.73    3.05
 -10  -2  18    6.23    3.33
 -10  -2  18    3.78    3.78
 -10   2  18   -0.11    3.08
 -10   2  18    4.10    3.31
  10   2 -18    3.78    3.27
   8  -2 -18    1.92    3.29
  -8  -2  18    4.14    3.02
   8  -2 -18   -6.80    3.11
   8   2 -18    3.34    3.61
   8   2 -18   -0.22    3.00
  -8   2  18    1.14    2.87
  -8   2  18    1.04    2.78
  -6  -2  18    2.80    3.09
   6  -2 -18    3.64    3.88
   6  -2 -18    1.96    3.13
   6   2 -18   -1.82    3.76
  -6   2  18   -1.17    2.78
  -6   2  18   -0.87    2.70
   6   2 -18    4.64    3.43
   4  -2 -18    2.50    3.14
  -4  -2  18    1.07    3.02
   4  -2 -18    7.96    4.76
  -4   2  18    2.68    3.17
   4   2 -18    2.75    4.23
   4   2 -18    0.29    3.18
  -4   2  18    1.46    2.89
   2  -2 -18    4.90    5.00
   2  -2 -18    1.12    3.59
  -2  -2  18   -1.80    2.92
  -2   2  18    1.13    2.68
  -2   2  18    7.24    3.46
   2   2 -18   -0.22    4.50
   2   2 -18    6.10    4.00
   0  -2 -18    5.38    4.07
   0  -2  18    4.75    3.19
   0  -2 -18    5.13    5.65
   0   2  18    1.75    3.66
   0   2  18    9.21    3.44
   0   2 -18    2.55    3.84
   0   2 -18   10.76    5.38
  -2  -2 -18    6.38    4.31
   2  -2  18   -0.45    3.18
  -2  -2 -18   -4.92    6.55
   2   2  18   -0.90    3.01
  -2   2 -18    2.97    5.61
  -2   2 -18   -0.12    4.00
  -4  -2 -18    1.00    4.33
   4  -2  18    0.57    3.54
  -4   2 -18   -3.55    4.24
   4   2  18   -0.17    3.63
   6  -2  18    2.06    3.50
  -6  -2 -18    0.79    5.14
 -19  -3  18    4.46    5.20
  19  -3 -18    0.32    4.27
  19  -3 -18    6.17    4.58
  19  -3 -18    7.06    3.61
  19   3 -18    2.66    6.35
  19   3 -18    2.43    2.83
 -19   3  18   -0.71    4.43
  17  -3 -18    6.17    4.25
  17  -3 -18    1.38    3.39
 -17  -3  18   -1.35    4.34
  17  -3 -18   -0.24    3.83
  17   3 -18    2.52    4.92
  17   3 -18    0.16    2.82
 -17   3  18    5.73    4.61
  15  -3 -18    4.38    3.58
 -15  -3  18    7.42    4.37
 -15   3  18    7.21    4.09
 -15   3  18    7.46    4.35
  15   3 -18    9.77    3.23
  15   3 -18    3.64    4.67
 -13  -3  18   11.88    4.34
 -13  -3  18    6.10    3.54
  13  -3 -18   11.08    4.53
  13  -3 -18    5.57    3.51
  13   3 -18   12.81    4.58
  13   3 -18   13.17    3.65
 -13   3  18    9.54    4.30
 -13   3  18   11.40    4.08
  11  -3 -18   -0.75    3.07
 -11  -3  18    0.80    4.06
  11  -3 -18    3.82    3.36
 -11  -3  18    1.27    2.97
  11   3 -18   -1.53    3.86
  11   3 -18    2.41    3.13
 -11   3  18    2.00    3.41
 -11   3  18    4.24    3.40
   9  -3 -18    9.77    3.73
  -9  -3  18   11.15    3.64
   9  -3 -18   12.87    4.28
  -9  -3  18   11.02    4.16
  -9   3  18   11.67    3.91
   9   3 -18   10.88    3.96
  -9   3  18    8.42    3.59
   9   3 -18   -1.40    3.88
   7  -3 -18    3.28    4.09
   7  -3 -18   10.15    3.59
  -7  -3  18    8.59    3.83
  -7  -3  18    1.75    3.37
  -7   3  18    6.96    3.60
  -7   3  18    7.32    3.47
   7   3 -18    4.56    4.19
   7   3 -18    5.94    4.42
   5  -3 -18    2.17    3.00
  -5  -3  18    6.33    3.28
   5  -3 -18    0.37    4.43
  -5   3  18    3.63    2.92
   5   3 -18    2.78    3.64
   5   3 -18   -0.90    4.25
   5   3 -18   -0.15    4.30
  -5   3  18    0.75    3.07
   3  -3 -18   -1.84    3.13
  -3  -3  18    3.49    3.43
   3  -3 -18    0.54    4.61
  -3   3  18    1.13    3.01
   3   3 -18   -2.31    5.33
   3   3 -18    2.91    3.74
   3   3 -18    5.62    4.90
  -3   3  18    0.21    2.79
  -1  -3  18    5.20    3.18
   1  -3 -18   -0.97    3.73
   1  -3 -18   11.06    5.83
  -1   3  18    4.69    3.58
  -1   3  18    4.02    3.10
   1   3 -18    2.59    5.11
   1   3 -18   12.27    4.16
  -1  -3 -18   -2.17    6.25
   1  -3  18    1.85    3.32
  -1  -3 -18   -5.72    3.55
   1   3  18    4.60    3.52
  -1   3 -18    4.96    4.22
   1   3  18   -0.47    2.86
  -1   3 -18   -0.21    5.44
   3  -3  18   -0.60    3.63
  -3  -3 -18   -5.64    3.90
   3   3  18    1.84    4.08
  -3   3 -18    9.69    4.54
   3   3  18    1.26    4.01
  -5  -3 -18   -2.73    4.26
   5  -3  18    0.87    3.31
   5   3  18    1.79    4.54
  18  -4 -18    0.33    3.78
  18  -4 -18    5.21    4.25
 -18  -4  18    7.64    5.13
  18  -4 -18    1.98    4.33
  18   4 -18    8.13    5.34
 -18   4  18    2.74    4.36
  18   4 -18    1.01    3.51
  16  -4 -18   -3.02    3.49
  16  -4 -18    0.38    3.74
 -16  -4  18   -2.73    3.98
  16  -4 -18   -2.98    3.29
  16   4 -18   -4.83    3.75
 -16   4  18    6.21    4.57
  16   4 -18   -3.66    3.25
 -14  -4  18   -1.38    3.90
  14   4 -18    5.85    4.51
 -14   4  18    7.28    4.27
 -14   4  18   12.91    4.94
  14   4 -18    4.83    3.53
  12  -4 -18    7.40    4.47
 -12  -4  18    6.78    3.71
  12  -4 -18    4.26    3.47
 -12  -4  18   -3.89    3.91
  12   4 -18    4.91    4.05
  12   4 -18    3.68    3.76
 -12   4  18    5.57    3.95
 -12   4  18   -4.46    3.32
 -10  -4  18    1.72    3.72
  10  -4 -18    4.63    3.42
  10  -4 -18   -0.40    3.97
 -10  -4  18    4.09    3.49
 -10   4  18    6.93    3.75
  10   4 -18    8.34    4.02
  10   4 -18    8.26    4.17
 -10   4  18   -0.64    3.52
  -8  -4  18    2.56    3.19
  -8  -4  18    2.91    3.91
   8  -4 -18    3.57    4.44
   8  -4 -18    4.93    3.65
  -8   4  18   -3.62    2.80
  -8   4  18    3.91    3.55
   8   4 -18    2.58    3.93
   8   4 -18    5.23    4.48
   6  -4 -18   37.53    6.70
   6  -4 -18   27.52    5.14
  -6  -4  18   31.92    5.17
  -6  -4  18   26.23    5.07
   6   4 -18   40.82    6.98
  -6   4  18   34.73    5.36
  -6   4  18   30.81    4.95
   6   4 -18   41.94    6.00
   4  -4 -18   75.74    9.19
  -4  -4  18   53.96    6.32
   4  -4 -18   81.63    7.67
   4   4 -18   81.99    7.90
   4   4 -18   86.96    7.85
   4   4 -18   62.56    8.57
  -4   4  18   68.01    7.20
  -4   4  18   52.39    6.19
  -2  -4  18    5.92    3.80
   2  -4 -18    1.40    3.81
   2  -4 -18    4.08    5.37
  -2   4  18    2.90    3.70
   2   4 -18    0.34    5.28
   2   4 -18    3.31    3.88
  -2   4  18    2.84    2.93
   2   4 -18    5.64    4.12
   0  -4 -18    0.28    3.49
   0  -4 -18    4.88    6.51
   0  -4  18    4.91    3.70
   0   4  18    0.20    3.11
   0   4 -18    6.46    4.16
   0   4 -18   -7.27    5.39
   0   4 -18   10.14    4.54
   0   4  18    6.32    3.92
   2  -4  18   -1.08    3.36
  -2  -4 -18   -0.93    4.66
  -2   4 -18    4.54    4.62
  -2   4 -18   12.76    7.83
  -2   4 -18   -1.13    4.13
   2   4  18   -2.46    3.60
  -4  -4 -18    8.91    5.40
   4  -4  18    6.03    4.14
   4   4  18    8.23    4.85
  -4   4 -18   10.70    5.42
   6   4  18    2.45    4.98
  17  -5 -18    0.46    3.74
  17  -5 -18    7.25    4.68
  17  -5 -18    2.73    4.13
 -17  -5  18    4.33    5.31
  17   5 -18   -2.97    4.69
  17   5 -18    0.49    3.92
 -17   5  18    2.29    4.57
 -15  -5  18    0.05    4.61
  15  -5 -18    5.83    4.29
  15  -5 -18   -1.15    3.56
  15  -5 -18   -2.09    3.77
  15   5 -18   -1.30    4.85
  15   5 -18    8.48    4.15
 -15   5  18    0.37    4.20
  13  -5 -18    0.05    4.56
  13  -5 -18   11.00    4.59
 -13  -5  18   -0.28    4.21
  13  -5 -18    0.60    4.27
  13   5 -18    0.08    4.51
  13   5 -18    0.78    3.91
 -13   5  18    1.33    3.66
  11  -5 -18    8.97    5.05
 -11  -5  18    4.06    3.92
 -11  -5  18    8.89    4.65
  11  -5 -18    7.43    5.41
  11   5 -18    5.61    4.24
 -11   5  18    5.02    3.87
  11   5 -18    1.98    3.71
 -11   5  18    2.72    3.97
  -9  -5  18   -1.91    3.43
  -9  -5  18    8.59    3.68
   9  -5 -18    7.45    4.03
   9  -5 -18    8.56    5.26
   9   5 -18    7.85    4.24
  -9   5  18    9.76    4.16
   9   5 -18    4.82    4.75
  -9   5  18    1.64    3.39
  -7  -5  18    3.76    3.78
   7  -5 -18    5.98    5.40
   7  -5 -18    1.54    3.67
  -7  -5  18   -2.80    3.18
   7   5 -18   -2.77    4.73
   7   5 -18    3.08    4.23
  -7   5  18   -3.73    2.99
  -7   5  18    1.25    3.52
  -5  -5  18    7.98    4.02
   5  -5 -18    3.14    5.72
   5  -5 -18    2.57    3.51
  -5  -5  18    7.02    3.86
   5   5 -18   15.16    5.87
   5   5 -18   11.02    4.42
  -5   5  18    8.69    4.25
  -5   5  18   13.10    3.95
   3  -5 -18    6.76    6.06
  -3  -5  18    6.20    3.95
   3  -5 -18    9.45    4.44
  -3  -5  18    8.61    4.07
  -3   5  18    8.49    4.00
  -3   5  18    2.66    3.27
   3   5 -18    3.72    5.95
   3   5 -18   10.13    4.69
   1  -5 -18   -6.08    3.27
  -1  -5  18    3.21    4.25
   1  -5 -18    7.29    6.14
   1   5 -18    1.35    3.88
   1   5 -18   -0.39    3.91
   1   5 -18   13.57    6.61
  -1   5  18   -0.75    3.41
  -1   5  18   -4.56    3.30
   1  -5  18    3.50    4.04
  -1  -5 -18    2.96    4.32
  -1   5 -18    2.39    4.43
   1   5  18    3.46    3.98
  -1   5 -18   -7.46    6.34
  -1   5 -18    5.61    4.70
  -3  -5 -18    8.01    5.37
   3  -5  18    0.66    3.41
   3   5  18   -0.20    4.19
  -3   5 -18   -2.74    3.79
 -14  -6  18    9.15    5.12
  14  -6 -18    9.61    5.19
  14  -6 -18   -5.37    4.59
  14  -6 -18    5.88    5.81
  14   6 -18  -10.39    3.85
  14   6 -18    3.12    5.37
 -14   6  18    2.49    4.33
 -12  -6  18    0.44    4.71
  12  -6 -18    5.29    4.63
  12  -6 -18   -0.80    5.38
  12  -6 -18   -0.27    4.55
  12   6 -18    4.67    4.81
  12   6 -18    2.59    4.52
 -12   6  18    1.39    4.43
  10  -6 -18   -2.54    4.75
 -10  -6  18   -0.75    4.75
 -10  -6  18   -0.55    3.82
  10  -6 -18    0.74    5.56
  10  -6 -18    3.19    4.43
  10   6 -18   -0.46    4.24
 -10   6  18    1.49    4.00
  10   6 -18    4.83    5.49
  -8  -6  18   -0.47    4.82
   8  -6 -18    1.15    5.79
   8  -6 -18   -3.23    3.66
  -8  -6  18   -1.26    3.48
  -8   6  18    1.29    4.30
  -8   6  18   -1.30    3.47
   8   6 -18    2.36    5.00
   8   6 -18    1.03    5.64
   6  -6 -18    1.86    3.94
  -6  -6  18    0.05    3.73
   6  -6 -18   -0.21    5.66
  -6  -6  18    5.77    3.99
   6   6 -18    1.92    5.89
  -6   6  18    3.75    3.61
  -6   6  18    4.19    4.21
   6   6 -18    4.20    4.58
   4  -6 -18    8.21    4.42
   4  -6 -18    5.84    6.42
  -4  -6  18   13.69    4.72
  -4  -6  18    7.25    4.46
  -4   6  18    1.39    4.35
   4   6 -18   15.99    5.34
   4   6 -18    9.29    6.80
  -4   6  18    7.44    3.92
  -2  -6  18   -0.39    4.41
   2  -6 -18   -3.23    6.93
  -2  -6  18   12.04    4.98
   2  -6 -18   17.88    5.13
  -2   6  18    5.42    4.20
  -2   6  18   -1.11    4.23
   2   6 -18    5.23    7.20
   2   6 -18    5.76    4.92
   0  -6 -18    5.09    4.30
   0  -6  18   -4.63    3.87
   0   6 -18    3.53    4.87
   0   6  18    1.16    4.17
   0   6 -18   -4.79    6.69
   0   6 -18   -3.09    4.43
   2  -6  18    4.18    4.45
  -2  -6 -18   -0.04    4.37
   2   6  18   -0.50    4.68
  -2   6 -18    9.83    5.50
  11  -7 -18    5.10    6.79
  11  -7 -18    4.65    5.22
  11  -7 -18   -9.00    4.78
 -11  -7  18   -4.64    3.85
  11   7 -18   -1.87    4.08
 -11   7  18   -5.19    4.52
  11   7 -18    6.25    6.73
   9  -7 -18    6.17    6.84
   9  -7 -18   -3.17    4.95
   9  -7 -18    2.71    4.64
  -9  -7  18   -0.20    4.21
   9   7 -18    5.21    6.33
  -9   7  18    0.81    4.53
   9   7 -18    1.64    4.68
  -7  -7  18   -3.76    3.74
  -7  -7  18    0.86    4.25
   7  -7 -18    0.40    6.66
   7  -7 -18   -4.35    4.28
   7  -7 -18   -1.33    4.22
   7  -7 -18   -1.21    4.79
  -7   7  18   -2.44    4.34
   7   7 -18   -0.63    6.35
   7   7 -18   -5.99    4.26
   5  -7 -18    1.69    4.64
  -5  -7  18    0.80    4.48
   5  -7 -18    6.52    5.26
  -5  -7  18   11.11    5.04
   5  -7 -18    5.52    5.57
   5  -7 -18    6.24    7.98
   5   7 -18    6.82    7.16
  -5   7  18    3.96    4.76
   5   7 -18    0.02    4.50
  -3  -7  18   -0.79    4.13
  -3  -7  18    3.41    4.41
   3  -7 -18   -3.77    3.91
   3   7 -18    3.46    4.95
   3   7 -18    1.00    7.20
  -3   7  18    6.59    4.63
  -1  -7  18    5.19    5.31
  -1  -7  18   -5.09    4.31
   1  -7 -18   -2.11    3.84
  -1   7  18   -2.98    4.12
   1   7 -18    2.15    5.09
   1   7 -18    4.04    8.39
 -18   0  19    1.72    3.92
  18   0 -19    1.36    2.05
  16   0 -19   -1.45    2.59
 -16   0  19   -0.36    3.39
  16   0 -19    0.66    3.93
 -14   0  19    1.35    3.52
  14   0 -19    4.07    3.77
  14   0 -19    2.80    2.60
  12   0 -19    1.82    3.08
 -12   0  19    1.37    3.08
  12   0 -19    1.34    2.80
  10   0 -19   -1.64    2.85
  10   0 -19   -2.98    2.95
 -10   0  19   -2.76    2.91
   8   0 -19   -6.13    2.94
   8   0 -19    2.80    3.37
  -8   0  19    5.67    3.34
  -6   0  19   -5.04    2.63
   6   0 -19   -4.01    3.39
   6   0 -19   -8.27    2.91
   4   0 -19   -2.33    3.55
   4   0 -19    0.69    4.14
  -4   0  19   -0.92    2.89
   2   0 -19    0.02    4.41
  -2   0  19    0.49    3.12
   2   0 -19    4.53    3.91
   0   0 -19    0.83    5.29
   0   0 -19    3.11    3.96
   0   0  19    3.56    3.27
  -2   0 -19    6.63    6.88
   2   0  19    3.66    3.27
  -2   0 -19    2.60    4.25
  -4   0 -19    1.79    4.48
   4   0  19    0.46    3.36
  -6   0 -19   -1.05    4.80
   6   0  19   -0.26    3.74
  19  -1 -19    0.43    4.26
  19  -1 -19   -0.99    2.24
 -19   1  19    6.03    4.56
 -19   1  19    4.25    7.90
  17  -1 -19   -1.00    2.57
 -17  -1  19   -4.63    3.54
  17   1 -19    3.58    2.11
  17   1 -19    1.67    4.08
 -17   1  19    6.43    3.92
  15  -1 -19    1.32    3.62
  15  -1 -19    0.09    2.54
 -15  -1  19   -1.27    3.33
 -15   1  19   -1.16    3.64
  15   1 -19   -0.76    3.32
  15   1 -19    4.65    2.45
 -13  -1  19    4.41    4.34
  13  -1 -19   10.67    3.17
  13  -1 -19    3.48    3.17
  13   1 -19    3.88    3.53
  13   1 -19    2.63    2.82
 -13   1  19    2.59    3.62
 -11  -1  19    0.39    3.11
  11  -1 -19    0.90    3.30
  11  -1 -19    3.77    3.05
 -11   1  19   -1.37    2.93
  11   1 -19    0.07    3.34
  11   1 -19    3.82    3.00
  -9  -1  19    3.69    3.16
   9  -1 -19    6.78    3.45
   9  -1 -19    0.33    3.13
   9   1 -19    4.28    3.36
   9   1 -19   -5.91    2.81
  -9   1  19   -2.69    2.83
   7  -1 -19   -1.68    3.16
   7  -1 -19    4.79    3.88
  -7  -1  19    1.38    3.09
   7   1 -19    2.57    3.97
   7   1 -19   -0.57    3.09
  -7   1  19    0.69    3.35
   5  -1 -19   -3.18    3.89
   5  -1 -19    1.28    3.58
  -5  -1  19    0.94    3.11
   5   1 -19   -2.55    3.84
  -5   1  19   -4.07    2.48
   5   1 -19    1.88    3.46
  -3  -1  19   -2.09    2.92
   3  -1 -19   -5.42    3.92
   3  -1 -19    1.35    3.70
   3   1 -19   -6.56    4.21
   3   1 -19    1.90    3.75
  -3   1  19    1.79    3.24
  -1  -1  19   -2.61    2.87
   1  -1 -19    3.94    4.10
   1  -1 -19   -1.96    4.63
   1   1 -19   -2.63    3.87
   1   1 -19    4.56    5.38
  -1   1  19   -1.57    3.08
   1  -1  19   -1.10    2.85
  -1  -1 -19   -2.37    5.39
  -1  -1 -19    3.91    4.16
   1   1  19    6.94    3.52
  -1   1 -19    1.14    6.19
  -1   1 -19    0.27    4.25
   3  -1  19    3.29    3.60
  -3  -1 -19    1.95    4.15
  -3   1 -19    2.59    4.62
   3   1  19   -1.01    3.32
  -5  -1 -19   -5.76    5.08
   5  -1  19    1.18    3.77
  -5   1 -19    0.63    4.75
   5   1  19    1.31    4.24
  18  -2 -19   -0.49    2.66
 -18  -2  19    0.59    4.07
  18  -2 -19    5.63    4.32
  18  -2 -19   -0.51    3.69
 -18   2  19    1.45    4.54
 -18   2  19   -5.04    3.74
  18   2 -19    2.25    2.48
 -16  -2  19    3.28    4.21
  16  -2 -19    1.01    3.16
 -16  -2  19    4.45    3.78
 -16   2  19   -1.34    3.84
  16   2 -19   -1.62    2.31
 -16   2  19    3.13    3.73
  14  -2 -19   15.70    4.79
  14  -2 -19   14.32    3.72
 -14  -2  19   14.65    4.13
 -14  -2  19   10.01    4.59
 -14   2  19   14.63    4.40
 -14   2  19   26.73    5.26
  14   2 -19   16.26    3.53
  12  -2 -19    7.96    3.51
 -12  -2  19    5.31    3.52
 -12  -2  19    7.81    4.03
  12  -2 -19    7.92    3.62
  12   2 -19    2.05    3.11
 -12   2  19   -2.32    3.40
 -12   2  19    2.29    3.51
  10  -2 -19   -0.53    3.31
  10  -2 -19    1.32    3.35
 -10  -2  19    2.99    3.43
  10   2 -19    8.36    3.41
  10   2 -19    8.02    3.62
 -10   2  19    3.42    3.59
 -10   2  19   -1.01    3.03
   8  -2 -19   11.58    4.73
   8  -2 -19   11.36    3.84
  -8  -2  19   15.07    4.24
  -8   2  19   15.88    3.99
   8   2 -19   17.26    4.45
   8   2 -19   11.46    4.09
  -8   2  19   15.65    3.89
   6  -2 -19   32.70    6.43
   6  -2 -19   44.58    6.00
  -6  -2  19   34.88    5.24
  -6   2  19   39.95    5.54
   6   2 -19   31.89    5.49
   6   2 -19   44.72    6.82
  -6   2  19   31.23    4.74
   4  -2 -19    4.04    3.66
  -4  -2  19    6.05    3.59
   4  -2 -19   10.18    5.32
   4   2 -19    8.28    4.95
   4   2 -19    9.27    4.05
  -4   2  19    5.96    3.25
   2  -2 -19   -0.57    3.61
   2  -2 -19   -3.67    4.60
  -2  -2  19    9.81    3.66
  -2   2  19    7.39    3.16
   2   2 -19    2.85    5.02
   2   2 -19    5.42    4.00
   0  -2  19   -1.89    3.28
   0  -2 -19   -2.18    5.72
   0  -2 -19   -2.65    3.86
   0   2  19    1.20    3.05
   0   2 -19   -4.23    3.89
   0   2 -19    6.22    5.64
  -2  -2 -19   15.62    5.42
   2  -2  19   19.93    4.81
  -2   2 -19   20.49    5.55
  -2   2 -19   37.21    8.89
   2   2  19   19.92    4.40
   4  -2  19   -4.16    3.24
  -4  -2 -19    9.30    5.19
   4   2  19    1.15    4.43
  -4   2 -19    2.85    4.71
   6  -2  19   -5.27    3.75
  -6  -2 -19  -10.68    4.92
  17  -3 -19    5.69    4.32
 -17  -3  19   10.58    4.99
  17  -3 -19    6.32    3.83
  17  -3 -19    9.51    4.51
  17   3 -19    8.49    3.31
 -17   3  19    4.18    4.71
 -15  -3  19   -1.04    3.86
  15  -3 -19   -4.08    3.08
 -15  -3  19   -0.96    4.51
 -15   3  19   -1.27    3.73
  15   3 -19   -1.27    2.98
 -15   3  19   -3.41    4.02
  13  -3 -19    2.75    4.03
 -13  -3  19    1.77    3.24
  13  -3 -19    0.20    3.39
 -13  -3  19   -4.88    3.76
 -13   3  19    1.83    3.90
  13   3 -19    2.62    3.17
 -13   3  19   -1.13    3.82
 -11  -3  19   10.67    4.45
 -11  -3  19   12.94    3.85
  11  -3 -19   14.37    4.38
  11  -3 -19   11.65    4.08
 -11   3  19   13.64    4.61
  11   3 -19   13.86    4.22
 -11   3  19   14.53    4.40
  -9  -3  19   -2.70    3.03
  -9  -3  19   -3.21    3.58
   9  -3 -19   -3.13    3.14
   9  -3 -19   -3.53    3.78
   9   3 -19    0.39    3.80
  -9   3  19    0.87    3.42
  -9   3  19    3.09    3.25
   7  -3 -19    0.18    3.17
   7  -3 -19   -1.42    4.11
  -7  -3  19    4.32    3.36
   7   3 -19    3.92    3.61
   7   3 -19    4.57    4.38
  -7   3  19    1.73    3.06
  -7   3  19    0.28    3.40
   5  -3 -19    5.86    3.63
  -5  -3  19    6.82    3.61
   5  -3 -19   -0.38    4.39
   5   3 -19   -0.24    4.75
  -5   3  19    7.00    3.23
  -5   3  19    0.40    3.56
   5   3 -19    9.20    4.30
  -3  -3  19   -1.24    3.41
   3  -3 -19   -0.95    3.38
   3  -3 -19   -5.99    6.29
   3   3 -19    3.98    5.16
   3   3 -19   -5.04    3.46
  -3   3  19   -2.18    3.28
  -3   3  19   -5.46    2.29
   1  -3 -19    2.09    4.09
  -1  -3  19    0.30    3.30
   1  -3 -19   -0.48    5.29
   1   3 -19    1.34    4.96
  -1   3  19    6.19    3.38
   1   3 -19    0.72    3.77
  -1   3  19    3.75    4.11
   1  -3  19    0.14    3.22
  -1  -3 -19    3.08    7.24
  -1  -3 -19    7.47    4.84
  -1   3 -19    1.61    5.47
  -1   3 -19    3.27    4.06
   1   3  19    0.81    3.23
   1   3  19    5.26    4.34
  -3  -3 -19   -6.88    4.24
   3  -3  19   -2.79    3.76
  -3   3 -19    1.56    5.02
   3   3  19   -1.91    4.79
   5  -3  19    3.67    4.03
  -5  -3 -19   15.87    6.30
  16  -4 -19    5.71    4.58
  16  -4 -19    9.01    4.35
  16  -4 -19    3.17    4.23
 -16  -4  19    0.62    5.34
  16   4 -19    6.66    3.95
 -16   4  19    2.21    4.28
  16   4 -19    3.48    5.21
  14  -4 -19    0.72    3.80
 -14  -4  19    3.22    4.89
  14   4 -19    3.83    3.45
  14   4 -19   -3.35    4.53
 -14   4  19   -1.35    3.95
 -14   4  19   -0.24    3.92
  12  -4 -19   -0.57    4.09
 -12  -4  19    1.29    4.91
 -12  -4  19    4.95    3.75
  12  -4 -19    2.58    3.90
  12   4 -19    4.07    4.55
 -12   4  19    0.49    3.48
 -12   4  19    7.22    4.06
  12   4 -19    6.56    3.82
 -10  -4  19   11.55    3.77
 -10  -4  19    2.18    4.03
  10  -4 -19   -2.24    3.28
  10  -4 -19    3.83    4.73
  10   4 -19    2.69    4.60
  10   4 -19    5.86    4.27
 -10   4  19    9.25    4.09
 -10   4  19   -2.63    3.28
   8  -4 -19   -3.38    4.32
  -8  -4  19    2.25    3.32
  -8  -4  19    0.76    3.48
   8  -4 -19    2.40    3.73
   8   4 -19   -3.23    4.31
  -8   4  19    1.52    3.11
   8   4 -19   -4.05    4.22
  -8   4  19    1.61    3.73
  -6  -4  19   27.83    5.18
   6  -4 -19   16.31    5.88
  -6  -4  19   22.11    4.91
   6  -4 -19   29.74    5.61
  -6   4  19   37.32    5.53
  -6   4  19   27.02    4.97
   6   4 -19   35.03    7.19
   6   4 -19   34.53    6.12
   4  -4 -19   31.67    7.15
  -4  -4  19   37.10    5.68
   4  -4 -19   38.14    5.95
   4   4 -19   29.45    7.10
  -4   4  19   33.49    5.51
   4   4 -19   38.76    6.30
  -4   4  19   36.55    5.19
   4   4 -19   26.84    5.64
   2  -4 -19    3.90    5.47
  -2  -4  19   11.77    4.72
   2  -4 -19   16.53    4.96
   2   4 -19   19.51    5.87
   2   4 -19   17.68    6.61
  -2   4  19   15.79    4.55
   2   4 -19   19.12    5.37
  -2   4  19   15.04    3.91
   0  -4 -19   -3.26    4.06
   0  -4  19   -1.72    3.49
   0  -4 -19    0.14    7.11
   0   4  19    5.90    3.76
   0   4 -19   -3.19    4.18
   0   4 -19   -0.59    5.51
   0   4 -19    8.41    6.94
   0   4  19   -0.68    3.88
   2  -4  19    9.57    3.99
  -2  -4 -19    3.67    4.90
   2   4  19    3.49    4.31
  -2   4 -19    3.86    4.89
  -4  -4 -19    5.52    6.05
   4  -4  19    6.26    4.25
   4   4  19    5.27    4.99
 -15  -5  19    4.53    5.37
  15  -5 -19    4.33    4.39
  15  -5 -19    7.42    4.64
  15  -5 -19   -1.59    3.89
  15   5 -19    2.65    5.06
  15   5 -19    0.58    4.16
 -15   5  19   20.36    5.86
  13  -5 -19    4.59    4.40
 -13  -5  19   10.01    5.11
  13  -5 -19    8.73    5.52
  13  -5 -19   11.66    5.40
  13   5 -19    3.27    4.44
 -13   5  19   11.19    4.78
  13   5 -19   12.95    4.85
  11  -5 -19    3.39    4.76
 -11  -5  19    1.92    3.77
  11  -5 -19    8.25    5.70
 -11  -5  19    7.71    4.69
  11   5 -19    7.73    4.21
 -11   5  19    2.87    3.67
  11   5 -19    2.87    4.90
 -11   5  19    0.07    4.17
   9  -5 -19    4.16    5.12
  -9  -5  19    3.11    3.53
  -9  -5  19    1.04    3.91
   9  -5 -19   -2.53    3.57
  -9   5  19    0.55    3.91
   9   5 -19   -8.57    3.92
  -9   5  19    1.39    3.40
   9   5 -19    7.74    5.26
  -7  -5  19    7.20    4.21
   7  -5 -19    7.73    4.30
   7  -5 -19   20.22    6.60
  -7  -5  19    6.05    4.14
   7   5 -19    1.77    4.77
  -7   5  19    7.38    3.92
   7   5 -19    7.13    5.94
  -7   5  19    5.45    3.99
  -5  -5  19    1.59    3.99
   5  -5 -19    5.54    4.08
   5  -5 -19    1.26    5.63
  -5  -5  19    5.74    3.88
  -5   5  19    2.50    3.84
  -5   5  19   -3.42    3.19
   5   5 -19   -0.32    5.66
   5   5 -19   -3.28    4.50
   3  -5 -19   10.17    4.79
   3  -5 -19    4.56    6.61
  -3  -5  19    9.05    4.62
   3   5 -19   -2.45    4.25
   3   5 -19   14.99    5.30
  -3   5  19    1.93    4.32
  -3   5  19   14.09    4.27
   3   5 -19   18.33    6.62
  -1  -5  19    6.00    4.77
   1  -5 -19   -4.60    3.43
   1  -5 -19   -0.17    7.28
  -1   5  19   -3.51    3.61
   1   5 -19   -0.30    4.58
   1   5 -19  -11.43    5.44
   1   5 -19   -0.94    4.57
  -1   5  19   -3.53    4.13
  -1  -5 -19   -2.60    4.11
   1  -5  19   -1.12    4.14
  -1   5 -19    1.81    8.63
  -1   5 -19    4.98    5.11
  -1   5 -19    6.94    4.81
   1   5  19    1.95    4.35
  12  -6 -19    0.29    5.93
  12  -6 -19    3.65    4.42
 -12  -6  19    0.62    4.67
  12  -6 -19    2.26    4.87
  12   6 -19    0.97    5.09
 -12   6  19   -0.57    4.49
  12   6 -19    7.98    4.79
  10  -6 -19   -0.56    7.05
  10  -6 -19    9.58    5.11
 -10  -6  19   12.43    4.65
  10  -6 -19    5.95    5.94
 -10  -6  19    4.43    5.04
  10  -6 -19    0.71    4.84
 -10   6  19   -0.77    3.41
  10   6 -19   -5.50    5.44
 -10   6  19    4.53    4.45
  10   6 -19    4.99    5.43
   8  -6 -19   -0.16    4.09
  -8  -6  19    0.81    3.91
   8  -6 -19    2.86    6.19
  -8  -6  19   -0.63    3.78
  -8   6  19    0.42    3.60
   8   6 -19    6.58    4.83
  -8   6  19   -0.66    3.97
   8   6 -19    2.99    5.91
   6  -6 -19   -4.59    5.93
   6  -6 -19    5.17    4.35
  -6  -6  19    4.45    4.51
  -6  -6  19    4.00    3.97
   6   6 -19   -2.04    4.33
  -6   6  19    3.37    3.64
  -6   6  19    2.07    4.22
   6   6 -19   -1.71    6.11
   4  -6 -19    2.33    6.60
  -4  -6  19   -1.88    3.98
   4  -6 -19    6.07    4.47
  -4  -6  19    2.37    4.53
  -4   6  19   13.10    5.14
   4   6 -19    4.95    5.23
   4   6 -19   14.31    7.23
  -4   6  19    4.93    3.97
   2  -6 -19   13.86   14.14
  -2  -6  19   17.24    5.28
   2  -6 -19   24.49    6.06
   2   6 -19   24.51    8.36
   2   6 -19   26.75    6.37
   2   6 -19   13.21    5.63
  -2   6  19   20.41    5.69
  -2   6  19   16.39    8.15
   0  -6  19   -1.38    4.58
   0  -6 -19   -0.29    4.48
   0   6 -19   -2.10    8.57
   0   6 -19    3.32    6.28
   0   6 -19    0.90    4.82
   0   6  19   -0.36    4.27
   9   7 -19    4.25    6.76
  -7  -7  19   11.06    5.13
   7  -7 -19   16.42    5.84
   7  -7 -19   15.02    5.49
   7  -7 -19   12.29    7.95
   7  -7 -19   14.18    6.23
  -7  -7  19   10.31    4.97
   7   7 -19   13.76    7.53
  -7   7  19    1.40    4.73
   7   7 -19   14.64    6.08
  -5  -7  19    3.39    4.57
   5  -7 -19    8.55    5.02
  -5  -7  19    9.00    4.60
   5   7 -19    2.89    7.00
  -5   7  19    8.74    4.70
   5   7 -19   18.33    6.20
  -5   7  19    8.55    5.64
 -18   0  20    3.23    4.28
  18   0 -20    0.34    2.51
  16   0 -20   17.80    5.23
  16   0 -20   10.53    3.24
 -16   0  20   14.72    4.69
 -14   0  20   16.20    4.49
  14   0 -20    6.80    3.24
  14   0 -20    7.61    3.84
 -12   0  20    7.94    3.72
  12   0 -20    2.80    2.99
  12   0 -20    7.80    3.88
  10   0 -20    2.79    3.55
  10   0 -20    4.84    3.53
 -10   0  20    6.03    3.70
   8   0 -20   12.26    4.78
  -8   0  20   11.64    4.00
   8   0 -20    7.39    3.90
  -6   0  20   12.27    3.85
   6   0 -20   16.31    4.49
   6   0 -20    5.88    4.96
   4   0 -20    2.23    4.79
  -4   0  20    8.01    3.60
   4   0 -20    7.06    4.28
   2   0 -20   -2.14    3.89
   2   0 -20    4.71    5.47
  -2   0  20    0.07    3.07
   0   0 -20    1.05    6.02
   0   0  20    0.53    3.37
   0   0 -20   -2.64    3.90
   2   0  20    5.38    3.90
  -2   0 -20    3.37    4.72
  -4   0 -20   -0.97    4.81
   4   0  20   -3.31    4.26
 -17  -1  20    0.40    3.98
  17  -1 -20   -0.60    2.95
  17   1 -20    4.46    2.57
 -17   1  20    8.19    4.27
  17   1 -20    3.18    4.63
  15  -1 -20    5.64    3.98
 -15  -1  20    1.75    3.68
  15  -1 -20   -1.79    2.87
  15   1 -20    0.36    3.93
  15   1 -20   -0.33    2.69
 -15   1  20   -2.50    3.70
  13  -1 -20    2.31    3.50
  13  -1 -20    3.32    3.02
 -13  -1  20   -0.82    3.39
  13   1 -20    7.75    3.14
 -13   1  20   -0.96    3.71
  13   1 -20   -0.65    3.48
 -11  -1  20    8.81    3.90
  11  -1 -20   14.38    4.29
  11  -1 -20    9.25    3.69
  11   1 -20   14.05    4.44
  11   1 -20   12.05    3.84
 -11   1  20   13.79    4.02
   9  -1 -20   -1.95    3.35
  -9  -1  20    0.30    3.30
   9  -1 -20    0.34    3.22
   9   1 -20    4.86    3.54
  -9   1  20    2.71    3.49
   9   1 -20    0.69    3.74
   7  -1 -20    0.93    3.70
  -7  -1  20    3.69    3.52
   7  -1 -20   -0.21    4.00
  -7   1  20   -0.43    3.05
   7   1 -20    0.97    3.17
   7   1 -20    3.37    4.18
   5  -1 -20   -1.34    3.38
   5  -1 -20    4.31    4.69
  -5  -1  20    6.09    3.64
   5   1 -20    3.21    4.00
  -5   1  20    1.66    3.27
   5   1 -20   10.38    5.00
  -3  -1  20   -4.13    3.06
   3  -1 -20   10.02    4.52
   3  -1 -20   -4.73    4.64
  -3   1  20   -3.50    2.91
   3   1 -20    2.77    4.07
   3   1 -20    0.80    4.85
   1  -1 -20    0.00    4.38
  -1  -1  20    6.14    3.56
   1  -1 -20    2.61    5.25
   1   1 -20    9.31    6.05
  -1   1  20    2.65    3.64
   1   1 -20    5.31    4.52
   1  -1  20   -0.90    3.45
  -1  -1 -20   -2.43    4.36
  -1  -1 -20   -9.73    5.77
  -1   1 -20    3.95    6.10
  -1   1 -20   -2.02    4.14
   1   1  20    1.44    3.32
  -3  -1 -20   -5.20    4.29
   3  -1  20    0.43    3.54
  -3   1 -20   -1.70    5.15
   3   1  20    4.75    3.87
   5  -1  20   -0.84    4.00
  -5  -1 -20   -0.58    5.00
   5   1  20   -6.98    4.80
  -5   1 -20    2.26    5.21
 -18  -2  20    4.13    5.07
 -18   2  20    2.14    4.42
  18   2 -20    4.57    2.64
 -18   2  20    3.15    5.31
 -16  -2  20    2.41    4.13
 -16  -2  20   10.47    5.15
  16  -2 -20    7.22    3.54
 -16   2  20    4.83    4.34
  16   2 -20    8.36    5.51
 -16   2  20    6.85    5.02
  14  -2 -20    5.97    4.09
 -14  -2  20    0.85    4.18
 -14  -2  20    4.13    3.33
  14  -2 -20   -2.61    3.11
  14   2 -20   -0.57    3.01
 -14   2  20   -4.10    3.48
 -14   2  20    1.97    4.74
  12  -2 -20    7.99    3.90
  12  -2 -20    7.53    4.01
 -12  -2  20   -0.22    3.36
  12   2 -20    4.02    3.39
 -12   2  20    4.90    3.90
  12   2 -20   10.21    4.07
 -10  -2  20   -0.05    3.16
  10  -2 -20   -0.64    3.48
  10  -2 -20    3.78    3.49
  10   2 -20    6.32    3.99
 -10   2  20    0.35    3.61
  10   2 -20    1.77    3.36
  -8  -2  20    3.90    3.75
   8  -2 -20   -2.74    3.96
   8  -2 -20   -0.40    3.10
   8   2 -20   -2.19    3.22
  -8   2  20    1.29    2.91
   8   2 -20   -3.28    4.00
   6  -2 -20    9.19    4.09
  -6  -2  20   13.45    4.23
   6  -2 -20    3.10    4.98
   6   2 -20    9.01    5.14
  -6   2  20    8.30    3.33
   6   2 -20    8.18    4.11
   4  -2 -20   -3.18    4.41
  -4  -2  20    1.84    3.56
   4  -2 -20    3.84    3.57
   4   2 -20   -3.43    4.71
  -4   2  20    2.59    3.39
   4   2 -20   -2.19    3.86
   2  -2 -20   -5.08    5.20
   2  -2 -20   -5.16    3.35
  -2  -2  20   -0.30    3.02
   2   2 -20    3.82    4.82
  -2   2  20    0.79    3.13
   2   2 -20    0.89    5.40
   0  -2 -20   -0.75    6.02
   0  -2  20    0.46    3.67
   0  -2 -20   -3.94    4.31
   0   2  20    2.16    3.25
   0   2 -20    1.52    5.76
   0   2 -20   -1.93    3.97
   2  -2  20    1.86    3.67
  -2  -2 -20   -0.19    4.50
   2   2  20   -2.37    3.28
  -2   2 -20    2.30    4.88
  -4  -2 -20   -1.07    5.17
   4  -2  20    2.49    3.78
  -4   2 -20    3.81    5.57
  17  -3 -20    7.15    4.68
  17  -3 -20   12.24    4.94
 -17  -3  20    3.02    4.79
 -17   3  20    8.92    4.89
 -17   3  20    3.16    4.49
  17   3 -20    4.14    3.38
 -15  -3  20    5.84    4.56
  15  -3 -20    1.43    4.13
 -15  -3  20    4.98    4.28
 -15   3  20    3.67    4.19
 -15   3  20    1.72    3.87
  15   3 -20    4.12    3.60
 -13  -3  20   -0.39    4.32
 -13  -3  20   -4.02    3.91
  13  -3 -20   -1.85    3.92
  13  -3 -20    3.79    3.61
 -13   3  20   -3.85    3.88
 -13   3  20   -1.10    3.95
  13   3 -20   -0.06    3.06
 -11  -3  20   -2.93    4.15
 -11  -3  20    8.70    3.97
  11  -3 -20    3.40    3.93
  11  -3 -20   -0.31    3.61
  11   3 -20    2.57    3.81
 -11   3  20    9.50    4.18
 -11   3  20    5.33    3.85
   9  -3 -20    3.58    4.59
  -9  -3  20    4.07    3.92
   9  -3 -20    1.99    3.67
  -9   3  20    4.92    3.77
  -9   3  20    5.97    4.00
   9   3 -20    6.73    4.32
   9   3 -20    4.31    3.73
   7  -3 -20   16.03    4.82
  -7  -3  20    5.50    3.85
   7  -3 -20    9.11    5.35
   7   3 -20   13.62    4.88
  -7   3  20    5.53    4.13
   7   3 -20   16.99    5.74
  -7   3  20    7.65    3.73
  -5  -3  20   -3.30    3.37
   5  -3 -20    4.68    3.78
   5  -3 -20   -1.61    4.79
   5   3 -20    0.91    5.06
  -5   3  20    4.22    3.32
  -5   3  20    5.47    4.28
   5   3 -20    0.33    4.14
  -3  -3  20    0.17    3.72
   3  -3 -20    2.63    5.72
   3  -3 -20    7.53    4.11
  -3   3  20    6.06    3.49
   3   3 -20    6.39    5.79
   3   3 -20   10.17    4.82
  -3   3  20    0.07    4.15
  -1  -3  20    4.24    3.66
   1  -3 -20    0.48    5.93
   1  -3 -20    0.83    4.45
   1   3 -20    4.06    4.42
  -1   3  20    1.20    3.46
   1   3 -20    4.05    6.18
  -1  -3 -20   -0.11    4.59
   1  -3  20    0.58    3.87
  -1   3 -20    2.24    5.08
  -1   3 -20    0.20    6.96
   1   3  20    5.84    3.86
  -3  -3 -20   -0.23    5.06
   3  -3  20   -1.91    3.59
  -3   3 -20   -2.88    5.19
  16  -4 -20    0.75    4.14
  16  -4 -20    0.79    3.85
  16  -4 -20    5.08    3.76
 -16  -4  20   -2.10    4.63
  16   4 -20    2.04    3.85
 -16   4  20    2.30    4.29
 -14  -4  20   -5.34    4.62
  14  -4 -20   -5.17    3.32
  14   4 -20    4.07    3.58
 -14   4  20    6.86    4.95
 -14   4  20    1.83    4.67
 -12  -4  20    4.71    4.81
 -12  -4  20   -1.85    3.56
  12  -4 -20    1.15    4.43
  12  -4 -20   -0.01    4.38
 -12   4  20    3.94    4.42
 -12   4  20    0.34    3.73
  12   4 -20    2.24    4.03
  10  -4 -20    0.53    3.95
  10  -4 -20    2.64    5.09
 -10  -4  20   -0.09    4.06
 -10  -4  20    1.95    3.57
 -10   4  20    3.16    3.80
  10   4 -20   -0.19    3.64
 -10   4  20    0.89    3.98
   8  -4 -20   10.05    4.21
  -8  -4  20   -0.41    3.53
  -8  -4  20    6.94    3.90
   8  -4 -20    5.45    5.21
  -8   4  20    5.21    4.25
  -8   4  20    4.94    3.70
   8   4 -20    0.90    4.93
   6  -4 -20    3.83    5.21
  -6  -4  20    6.19    4.04
   6  -4 -20    0.38    3.63
  -6   4  20    4.82    3.67
   6   4 -20   -2.21    4.10
  -6   4  20    3.28    4.13
   6   4 -20   -0.37    5.22
   4  -4 -20    6.96    4.13
  -4  -4  20    7.74    4.50
   4  -4 -20    0.34    5.22
  -4   4  20    2.06    4.38
   4   4 -20    6.13    4.68
   4   4 -20   15.87    6.87
  -4   4  20    7.93    3.88
   2  -4 -20   -3.92    3.60
   2  -4 -20    1.64    6.40
  -2  -4  20    0.56    3.94
  -2   4  20   -0.22    4.10
   2   4 -20    0.59    4.15
  -2   4  20    0.90    3.01
   2   4 -20   -4.30    5.24
   0  -4 -20   -0.60    4.49
   0  -4  20   -6.74    3.06
   0   4 -20    4.55    4.97
   0   4  20    2.35    4.26
   0   4 -20   20.24    7.26
   0   4  20    2.96    4.11
  -2  -4 -20    4.14    5.55
   2  -4  20    0.86    3.96
  -2   4 -20    2.10    5.74
   2   4  20   -0.22    4.98
 -13  -5  20    3.32    5.37
  13   5 -20    6.16    5.91
  13   5 -20    2.43    4.13
 -13   5  20   10.32    4.52
 -13   5  20    0.94    4.21
 -11  -5  20    6.73    4.24
  11  -5 -20    9.21    5.92
  11  -5 -20    2.00    4.86
 -11  -5  20    9.86    5.38
 -11   5  20   16.30    5.13
 -11   5  20   12.65    4.57
  11   5 -20   12.51    4.96
  11   5 -20   15.65    6.15
  -9  -5  20   10.33    4.52
   9  -5 -20    1.28    5.31
  -9  -5  20    4.36    4.08
   9  -5 -20   -3.18    3.91
  -9   5  20   11.70    4.64
   9   5 -20   -0.34    5.33
   9   5 -20   -0.41    5.19
  -9   5  20   -3.25    3.35
  -7  -5  20    2.91    4.22
   7  -5 -20    9.51    6.56
   7  -5 -20    5.34    3.99
  -7  -5  20    9.37    4.54
   7   5 -20    5.03    6.35
  -7   5  20    4.04    4.50
   7   5 -20    4.66    5.36
  -7   5  20   -0.63    3.68
   5  -5 -20   -0.03    5.98
   5  -5 -20    6.98    4.34
  -5  -5  20    5.00    4.46
   5   5 -20    3.61    4.44
  -5   5  20    0.74    4.60
   5   5 -20    2.44    5.57
  -5   5  20    1.84    3.65
   5   5 -20   -0.98    6.01
  -3  -5  20    7.68    4.39
   3  -5 -20   10.24    6.90
   3  -5 -20    4.22    4.28
   3   5 -20   -1.17    5.86
   3   5 -20   20.56    5.65
  -3   5  20    4.27    4.71
  -3   5  20    2.14    3.73
   3   5 -20    5.77    6.83
  -1  -5  20    3.90    4.77
   1  -5 -20   -4.41    4.04
   1   5 -20    0.99    6.65
   1   5 -20    5.06    5.95
  -1   5  20   -0.42    4.51
  -1   5  20    2.58    5.84
   1   5 -20    3.51    4.69
 -10  -6  20   -2.54    4.00
  10  -6 -20    0.85    5.66
 -10  -6  20    3.14    4.88
 -10   6  20    2.73    4.27
  10   6 -20   -6.55    4.71
 -10   6  20    0.82    4.19
  10   6 -20    2.35    5.84
   8  -6 -20    2.83    6.43
  -8  -6  20    3.07    4.24
  -8  -6  20   -0.23    4.05
   8  -6 -20    0.28    4.47
  -8   6  20   -0.81    3.48
   8   6 -20    1.30    6.25
   8   6 -20   -6.79    4.83
  -8   6  20   -1.89    4.10
  -6  -6  20   -0.47    4.27
   6  -6 -20    4.37    4.57
   6  -6 -20    7.34    7.24
  -6  -6  20    8.45    4.61
   6   6 -20    7.17    6.71
  -6   6  20    2.50    3.85
   6   6 -20    4.72    5.22
  -6   6  20    3.42    4.55
   4  -6 -20   -4.58    6.37
  -4  -6  20   -2.94    3.94
  -4  -6  20    1.68    4.71
   4  -6 -20    0.81    4.31
  -4   6  20    1.77    3.86
   4   6 -20    7.12    7.31
   4   6 -20   -1.53    4.74
  -4   6  20   -4.06    4.33
   4   6 -20   -5.41    4.79
  18   0 -21   -3.04    2.69
 -18   0  21   -1.42    4.20
  16   0 -21   -5.75    3.76
 -16   0  21    3.93    4.12
  16   0 -21    1.56    2.89
  14   0 -21   -4.93    2.65
 -14   0  21    6.59    3.97
  14   0 -21   -2.44    3.64
  12   0 -21    4.91    3.75
 -12   0  21   -1.20    3.34
  12   0 -21   -2.01    3.14
  10   0 -21    3.09    3.76
 -10   0  21   -0.17    3.31
  10   0 -21    2.18    3.53
  -8   0  21    2.53    3.64
   8   0 -21   -2.42    3.91
   8   0 -21   -2.77    3.21
   6   0 -21   -4.02    3.42
  -6   0  21   -0.85    3.10
   6   0 -21   -4.91    4.58
  -4   0  21   -4.10    3.08
   4   0 -21    0.24    5.16
   4   0 -21    1.90    3.93
  -2   0  21    1.32    3.57
   2   0 -21    0.11    4.39
   2   0 -21    1.32    5.70
   0   0 -21    1.14    6.51
   0   0  21    0.72    3.79
   0   0 -21   -6.45    4.35
  -2   0 -21   -1.92    4.15
   2   0  21    0.99    3.56
 -17  -1  21   -1.64    4.16
  17  -1 -21    6.87    3.57
  17   1 -21   -2.17    2.64
  17   1 -21    0.75    4.36
 -17   1  21   -1.84    4.55
  15  -1 -21   -7.94    3.78
 -15  -1  21    2.90    4.19
  15  -1 -21   -0.25    3.32
  15   1 -21    5.13    4.11
  15   1 -21   -0.95    2.92
 -15   1  21    0.48    4.32
  13  -1 -21    1.44    3.37
 -13  -1  21    5.24    3.68
  13  -1 -21    4.56    4.18
  13   1 -21   -0.67    3.14
  13   1 -21    1.45    3.76
 -13   1  21    0.42    3.70
  11  -1 -21    1.84    3.38
 -11  -1  21   -4.65    3.03
  11  -1 -21    2.14    3.67
 -11   1  21    0.05    3.26
  11   1 -21    8.35    3.94
  11   1 -21    0.01    3.76
   9  -1 -21    1.49    3.43
  -9  -1  21   -0.40    4.09
   9  -1 -21    3.11    4.39
   9   1 -21    0.44    3.67
   9   1 -21    0.76    3.47
  -9   1  21    2.63    3.61
  -7  -1  21   -2.52    3.43
   7  -1 -21    1.45    4.47
   7  -1 -21   -3.81    3.31
  -7   1  21   -0.29    3.14
   7   1 -21   -2.84    2.97
   7   1 -21    3.15    4.47
   5  -1 -21   -0.72    3.59
  -5  -1  21    2.48    3.39
   5  -1 -21    0.85    4.56
  -5   1  21   -1.86    2.74
   5   1 -21    5.99    5.45
   5   1 -21    3.66    4.05
  -3  -1  21   -1.20    3.67
   3  -1 -21   -2.13    3.97
   3  -1 -21   -2.52    4.84
   3   1 -21    1.77    4.34
  -3   1  21    2.42    3.61
   3   1 -21    3.39    5.86
   1  -1 -21   -4.16    6.02
  -1  -1  21    5.86    4.00
   1  -1 -21    5.24    4.62
   1   1 -21    0.56    4.84
   1   1 -21  -11.23    5.37
  -1   1  21    2.05    3.49
   1  -1  21    0.79    3.58
  -1  -1 -21   -1.25    7.89
  -1  -1 -21   -2.62    4.42
  -1   1 -21    4.72    7.27
  -1   1 -21    8.19    4.96
   1   1  21    4.02    3.88
  -3  -1 -21   -0.34    5.42
   3  -1  21    0.68    3.56
  -3   1 -21    3.96    4.67
   3   1  21    3.55    3.70
  16  -2 -21    5.20    3.89
 -16  -2  21   -0.94    4.16
 -16   2  21    7.36    4.46
  16   2 -21    3.10    4.26
  16   2 -21   -0.62    3.24
  14  -2 -21    2.11    4.37
 -14  -2  21    2.96    3.93
  14  -2 -21    6.73    3.70
  14   2 -21    6.32    3.52
 -14   2  21    3.79    4.47
  14   2 -21    0.15    3.89
  12  -2 -21    0.51    4.07
 -12  -2  21   -4.11    2.95
  12  -2 -21    7.62    3.80
 -12   2  21    1.72    4.11
  12   2 -21    6.95    4.37
  12   2 -21    2.10    3.77
 -10  -2  21    3.13    3.72
  10  -2 -21    2.31    3.52
  10  -2 -21   -0.72    3.77
  10   2 -21    4.98    3.69
 -10   2  21   -1.16    3.72
  10   2 -21    6.03    3.96
  -8  -2  21   -0.90    3.49
   8  -2 -21   -0.27    4.74
   8  -2 -21   -0.17    3.82
   8   2 -21   -3.06    4.04
   8   2 -21   -2.41    3.55
  -8   2  21   -1.89    3.15
   6  -2 -21    2.30    5.19
   6  -2 -21    0.49    3.68
  -6  -2  21   -2.56    3.48
  -6   2  21   -2.71    3.43
   6   2 -21    0.34    4.83
   6   2 -21   -0.75    3.96
  -4  -2  21    0.91    3.76
   4  -2 -21    1.86    4.25
   4  -2 -21    2.60    5.89
   4   2 -21    8.66    5.71
   4   2 -21   -1.91    4.18
  -4   2  21    1.74    3.35
   2  -2 -21   10.58    5.12
  -2  -2  21   14.50    4.43
   2  -2 -21    6.83    6.47
   2   2 -21    2.66    5.75
   2   2 -21   17.78    5.46
  -2   2  21    9.24    4.14
   0  -2  21    2.23    3.60
   0  -2 -21   -2.63    4.58
   0  -2 -21    6.01    6.63
   0   2  21   -4.64    7.11
   0   2 -21   -0.19    6.39
   0   2 -21   -5.59    4.64
   2  -2  21    3.83    4.01
  -2  -2 -21   -6.26    4.76
  -2   2 -21   -0.47    4.92
   2   2  21    2.15    3.74
 -15  -3  21   -1.76    4.13
  15  -3 -21    6.17    4.16
 -15  -3  21    5.29    5.06
  15   3 -21   -2.84    3.24
 -15   3  21   -0.39    4.79
 -15   3  21   -2.94    3.99
  13  -3 -21   -1.59    4.49
  13  -3 -21    3.01    4.03
 -13  -3  21   -7.19    3.37
 -13  -3  21    0.83    4.53
  13   3 -21    9.43    4.10
 -13   3  21    1.93    4.79
 -13   3  21    1.96    4.09
  11  -3 -21    2.53    4.54
  11  -3 -21   -5.53    3.72
 -11  -3  21   -0.60    3.43
 -11   3  21    1.11    4.49
  11   3 -21    4.27    3.70
 -11   3  21   -5.65    2.97
  11   3 -21   -2.78    3.50
  -9  -3  21    1.68    3.82
   9  -3 -21   -0.50    3.33
   9  -3 -21    6.46    5.21
   9   3 -21    1.72    3.52
  -9   3  21    2.54    5.24
   9   3 -21   -1.31    3.86
  -9   3  21    0.54    3.28
   7  -3 -21   -2.83    3.56
  -7  -3  21   -3.49    3.84
   7  -3 -21    4.65    5.36
   7   3 -21    0.62    4.91
  -7   3  21   -0.03    3.54
   7   3 -21    6.82    4.82
   5  -3 -21    3.51    5.73
  -5  -3  21    4.37    4.27
   5  -3 -21   -2.72    4.15
  -5   3  21    2.49    3.49
   5   3 -21   -2.68    4.11
   5   3 -21   -2.07    5.56
  -3  -3  21    0.25    3.76
   3  -3 -21    3.34    4.00
   3  -3 -21    3.57    5.95
  -3   3  21    4.62    3.45
   3   3 -21    2.33    4.23
   3   3 -21    5.73    6.19
   1  -3 -21    1.87    4.79
   1  -3 -21   -4.78    6.42
  -1  -3  21   -1.61    3.45
   1   3 -21    6.96    4.91
  -1   3  21   -0.89    3.10
   1   3 -21    4.62    6.74
  -1  -3 -21   -1.33    4.98
   1  -3  21   -6.17    3.27
  -1   3 -21    9.69    8.66
  -1   3 -21    3.09    5.41
   1   3  21    0.92    3.83
  14  -4 -21    1.46    4.23
 -14  -4  21    3.31    5.15
  14   4 -21    5.98    4.46
 -14   4  21    4.17    4.65
 -14   4  21    9.68    4.91
  12  -4 -21    7.99    5.38
 -12  -4  21    7.72    4.79
  12  -4 -21    5.11    4.96
 -12  -4  21    7.51    5.29
 -12   4  21   11.55    5.29
  12   4 -21   10.43    4.68
 -12   4  21    1.34    3.76
 -10  -4  21   -1.69    3.88
 -10  -4  21    7.68    5.06
  10  -4 -21    1.91    5.22
  10  -4 -21    0.97    3.94
 -10   4  21    2.39    4.17
 -10   4  21    0.56    3.69
  10   4 -21    5.50    4.30
   8  -4 -21   -2.80    5.47
  -8  -4  21   -2.26    4.00
   8  -4 -21    3.66    4.20
  -8   4  21    0.09    3.98
   8   4 -21    8.82    5.78
  -8   4  21    0.93    3.43
   8   4 -21    0.31    4.69
  -6  -4  21   10.96    4.90
   6  -4 -21   12.00    4.94
   6  -4 -21    5.12    5.88
  -6   4  21    8.24    4.44
   6   4 -21    3.13    4.80
   6   4 -21    7.50    6.07
  -6   4  21   11.17    4.22
   4  -4 -21    3.91    6.26
   4  -4 -21    6.78    4.31
  -4  -4  21    1.66    3.91
   4   4 -21    1.23    4.65
  -4   4  21    5.99    3.89
  -4   4  21   -8.62    3.93
   4   4 -21   -2.91    5.46
  -2  -4  21   -3.88    4.11
   2  -4 -21    0.78    6.82
   2  -4 -21    4.33    4.13
  -2   4  21   -0.84    3.30
   2   4 -21   -3.15    6.25
   2   4 -21    1.44    4.74
  -2   4  21    0.91    4.88
   0  -4  21    1.62    3.68
   0  -4 -21   -2.90    4.95
   0   4 -21   -6.91    6.97
   0   4  21    1.42    4.59
   0   4  21    2.52    6.77
   0   4 -21    2.88    5.13
 -11  -5  21    3.27    5.44
 -11  -5  21    2.44    4.19
  11  -5 -21    2.05    6.08
  11  -5 -21    1.71    5.11
 -11   5  21   -1.27    3.33
 -11   5  21   -1.57    4.10
  11   5 -21    9.09    4.73
   9  -5 -21  -11.15    3.94
  -9  -5  21    3.15    4.28
   9  -5 -21    4.01    5.98
  -9  -5  21    2.79    4.15
  -9   5  21   -2.58    4.11
   9   5 -21    0.42    6.05
  -9   5  21    2.80    4.20
   7  -5 -21   -0.65    4.01
   7  -5 -21   -3.27    6.19
  -7  -5  21    4.42    4.61
  -7  -5  21    1.56    4.81
   7   5 -21    1.81    6.19
  -7   5  21    2.62    4.42
  -7   5  21   -2.79    3.34
   5  -5 -21    2.29    6.49
   5  -5 -21    3.05    4.54
  -5  -5  21   -2.63    4.25
   5   5 -21    8.69    5.47
   5   5 -21    4.28    6.60
  -5   5  21   -0.78    4.33
  -5   5  21   -4.27    3.51
   3  -5 -21   -4.51    4.02
  -3  -5  21   -5.42    3.96
   3  -5 -21   -2.37    6.61
   3   5 -21   -3.71    6.26
  -3   5  21    0.00    4.10
   3   5 -21   -6.27    4.79
  -3   5  21   -2.27    3.58
  16   0 -22   11.53    3.67
  16   0 -22    8.85    4.81
 -16   0  22    8.80    4.84
  14   0 -22    5.38    4.49
 -14   0  22    6.09    4.18
  14   0 -22    2.25    3.36
  12   0 -22    3.94    4.27
 -12   0  22   -0.40    4.00
  12   0 -22    5.46    3.86
  10   0 -22   -3.41    3.08
 -10   0  22    2.83    3.93
  10   0 -22    4.27    4.17
  -8   0  22    2.33    3.98
   8   0 -22   -0.83    4.50
   8   0 -22    6.78    4.01
   6   0 -22   21.24    4.97
   6   0 -22    8.30    5.64
  -6   0  22   21.05    4.51
   4   0 -22   -6.14    4.09
   4   0 -22    2.12    5.91
  -4   0  22   -5.26    3.13
   2   0 -22    3.17    6.27
  -2   0  22    4.49    3.81
   2   0 -22    7.59    5.08
   0   0 -22    7.01    7.63
   0   0  22    8.51    4.17
   0   0 -22    7.14    5.32
 -15  -1  22    0.99    4.13
  15  -1 -22    4.10    4.59
  15  -1 -22    5.63    3.85
  15   1 -22   -1.64    4.50
  15   1 -22    1.74    2.89
 -15   1  22    2.29    4.52
 -13  -1  22   -5.15    3.53
  13  -1 -22    2.12    3.66
  13  -1 -22   -1.64    3.81
  13   1 -22    4.42    3.64
  13   1 -22    0.07    3.54
 -13   1  22    7.65    4.62
  11  -1 -22   -3.02    3.55
  11  -1 -22    5.48    3.64
 -11  -1  22    2.70    3.95
 -11   1  22    2.33    4.07
  11   1 -22   -0.77    3.49
  11   1 -22    4.77    4.02
   9  -1 -22    5.19    4.08
  -9  -1  22    4.67    3.96
   9  -1 -22    3.62    4.62
   9   1 -22    6.63    4.10
  -9   1  22    7.37    4.23
   9   1 -22    1.89    4.00
   7  -1 -22   -0.45    4.73
  -7  -1  22    1.34    3.83
   7  -1 -22    1.51    3.45
   7   1 -22   10.13    5.62
  -7   1  22   -0.54    3.22
   7   1 -22   -0.62    3.59
   5  -1 -22   -0.10    3.64
  -5  -1  22    1.75    3.65
   5  -1 -22   -2.44    5.08
  -5   1  22    1.94    3.64
   5   1 -22   -0.55    5.65
   5   1 -22   -7.25    4.18
   3  -1 -22   -3.41    5.49
  -3  -1  22    5.10    4.05
   3  -1 -22   -1.13    4.25
  -3   1  22   -0.11    3.27
   3   1 -22    0.42    4.56
   3   1 -22   -1.70    6.08
  -1  -1  22    5.36    4.16
   1  -1 -22   -0.09    6.18
   1  -1 -22   -0.96    4.97
  -1   1  22    8.07    4.17
   1   1 -22    9.95    7.08
   1   1 -22    8.93    5.41
  -1  -1 -22    4.94    5.22
   1  -1  22   -1.76    3.33
  -1   1 -22    2.50    4.91
   1   1  22    0.66    3.97
  16  -2 -22   16.60    4.41
  16   2 -22    9.67    3.95
  14  -2 -22    4.47    4.04
 -14  -2  22   -4.91    3.77
  14  -2 -22    7.63    4.89
 -14   2  22   -0.56    4.35
  14   2 -22   -4.76    3.54
  14   2 -22   -4.79    3.35
  12  -2 -22    2.07    7.89
  12  -2 -22    7.98    4.38
 -12  -2  22   -1.16    3.96
  12   2 -22   -3.04    3.59
 -12   2  22    3.19    4.32
  12   2 -22    6.48    3.80
  10  -2 -22    4.79    4.83
  10  -2 -22    2.43    3.89
 -10  -2  22    4.79    4.20
 -10   2  22   -1.42    3.37
  10   2 -22   -1.08    4.07
  10   2 -22   -2.50    3.73
   8  -2 -22    3.88    4.25
  -8  -2  22    0.51    4.22
   8  -2 -22    7.06    5.58
   8   2 -22    3.57    3.82
   8   2 -22   10.22    5.43
  -8   2  22    1.19    3.18
  -6  -2  22    4.08    4.44
   6  -2 -22    3.75    5.86
   6  -2 -22   10.68    4.43
   6   2 -22    4.97    4.71
  -6   2  22    2.71    3.73
   6   2 -22    4.61    5.66
  -4  -2  22    1.21    3.86
   4  -2 -22    1.59    3.80
   4  -2 -22    2.67    6.28
   4   2 -22   -2.12    4.61
   4   2 -22   -1.85    5.62
  -4   2  22   -1.08    3.47
   2  -2 -22   -2.44    6.26
  -2  -2  22    0.65    3.49
   2  -2 -22    1.25    4.87
   2   2 -22   -1.26    4.86
   2   2 -22   -1.29    6.06
  -2   2  22   -5.15    3.17
   0  -2 -22   -2.71    5.04
   0  -2 -22   -0.30    8.23
   0  -2  22    2.89    3.82
   0   2  22   -3.72    3.75
   0   2 -22    6.43    5.48
   0   2 -22    3.21    6.87
 -13  -3  22    0.10    3.84
  13  -3 -22   -0.90    4.23
  13  -3 -22    7.75    4.22
  13   3 -22   -4.40    3.40
 -13   3  22    1.15    4.42
  13   3 -22   -0.79    3.64
  11  -3 -22    0.36    4.80
 -11  -3  22    2.27    4.21
  11  -3 -22    3.50    4.94
  11   3 -22    2.39    4.26
 -11   3  22    7.57    4.04
  11   3 -22    4.47    4.26
  -9  -3  22    8.87    4.50
   9  -3 -22   -5.59    3.42
   9  -3 -22    2.42    5.11
  -9   3  22    1.26    3.60
   9   3 -22    2.70    4.09
   9   3 -22    3.33    5.11
   7  -3 -22   -2.58    5.25
   7  -3 -22   -1.44    3.72
  -7  -3  22   -7.86    3.57
   7   3 -22   -5.19    5.15
   7   3 -22   -2.18    4.34
  -7   3  22   -1.56    3.34
   5  -3 -22    7.77    5.78
   5  -3 -22   -1.61    3.86
  -5  -3  22    7.88    4.33
  -5   3  22    4.98    3.74
   5   3 -22    6.96    6.00
   5   3 -22   10.16    5.32
   3  -3 -22    7.42    4.32
  -3  -3  22   13.19    5.04
   3  -3 -22    5.71    6.61
   3   3 -22    1.39    4.69
   3   3 -22    1.80    6.11
  -3   3  22    2.31    3.50
   1  -3 -22   -2.39    5.68
  -1  -3  22    2.70    3.72
   1  -3 -22   -9.82    7.31
   1   3 -22   -5.60    7.12
   1   3 -22   -0.20    5.00
  -1   3  22    0.83    3.77
  12  -4 -22    3.02    4.92
  12  -4 -22   -2.53    5.56
 -12  -4  22   -1.16    5.01
 -12  -4  22    2.40    4.83
  12   4 -22   -1.81    4.39
 -12   4  22    8.64    5.30
 -12   4  22    2.22    4.07
  10  -4 -22    7.06    5.92
 -10  -4  22    1.48    4.11
  10  -4 -22    4.32    4.52
 -10   4  22    3.35    3.78
 -10   4  22    5.98    5.19
  10   4 -22    4.41    4.62
  10   4 -22    7.55    5.38
   8  -4 -22   -3.12    3.99
  -8  -4  22    3.73    4.50
   8  -4 -22    3.10    6.09
   8   4 -22    0.54    5.70
   8   4 -22   -3.09    4.87
  -8   4  22   -6.39    3.41
  -8   4  22    4.51    5.11
   6  -4 -22    6.59    4.62
  -6  -4  22   -3.76    3.95
   6  -4 -22   -0.99    5.88
  -6   4  22    0.38    3.51
  -6   4  22    2.61    6.55
   6   4 -22    9.25    5.61
   6   4 -22    1.65    6.04
   4  -4 -22   -1.57    6.35
   4  -4 -22    0.59    4.50
  -4  -4  22   -1.85    4.21
  -4   4  22    1.60    3.71
   4   4 -22   -2.80    4.66
   4   4 -22   -1.42    6.70
  14   0 -23    0.59    4.09
 -14   0  23   -1.13    3.96
  14   0 -23   -5.78    3.15
 -12   0  23    6.86    4.66
  12   0 -23   -2.55    4.05
  12   0 -23    0.01    3.56
 -10   0  23    1.72    4.11
  10   0 -23   -3.94    4.10
  10   0 -23   -2.57    3.77
   8   0 -23    6.31    5.38
  -8   0  23    2.90    3.99
   8   0 -23   -3.45    3.82
   6   0 -23   -1.73    4.11
   6   0 -23   -5.09    4.86
  -6   0  23   -4.77    3.01
   4   0 -23    3.73    5.19
  -4   0  23    3.91    4.15
   4   0 -23    1.62    6.79
  -2   0  23    1.23    3.42
   2   0 -23   -5.38    6.36
   2   0 -23    2.12    5.16
 -13  -1  23    7.39    4.54
  13  -1 -23   -1.82    3.49
  13  -1 -23   -5.63    4.63
  13   1 -23   -1.33    3.94
  13   1 -23   -4.57    3.39
 -13   1  23   -1.86    3.94
  11  -1 -23   -4.09    3.44
  11  -1 -23    3.64    4.06
 -11  -1  23    1.55    4.03
 -11   1  23   -1.25    3.87
  11   1 -23    4.57    3.84
  11   1 -23    1.87    4.06
   9  -1 -23    1.77    5.15
   9  -1 -23   -3.99    3.73
  -9  -1  23    0.57    4.09
   9   1 -23    3.20    5.24
   9   1 -23   -1.33    3.57
  -9   1  23    2.58    3.97
  -7  -1  23    5.67    4.57
   7  -1 -23    6.18    4.47
   7  -1 -23    2.95    5.54
  -7   1  23    0.77    3.59
   7   1 -23    0.44    3.93
   7   1 -23    6.43    5.88
   5  -1 -23   -5.29    5.38
  -5  -1  23   -2.14    3.17
   5  -1 -23    1.69    4.20
   5   1 -23   -0.47    6.25
   5   1 -23   -1.89    4.48
  -5   1  23   -0.43    3.47
  -3  -1  23    5.01    4.18
   3  -1 -23   -2.42    4.95
   3  -1 -23    4.75    6.45
   3   1 -23   -1.64    6.41
  -3   1  23    0.27    3.55
   3   1 -23    0.14    5.36
  12  -2 -23    1.86    4.30
 -12  -2  23    2.81    4.28
  12  -2 -23   -1.59    4.30
  12   2 -23    3.84    4.03
 -12   2  23   -4.62    4.19
  12   2 -23   -5.61    4.03
 -10  -2  23    7.80    4.51
  10  -2 -23   -2.24    5.10
  10  -2 -23    4.97    3.97
  10   2 -23   -3.78    5.44
  10   2 -23   -2.70    4.18
 -10   2  23   -4.32    3.72
   8  -2 -23   -3.98    5.45
  -8  -2  23   -6.50    3.73
   8  -2 -23   -1.39    4.11
   8   2 -23    1.57    3.99
  -8   2  23    0.40    3.27
   8   2 -23   -1.74    5.11
   6  -2 -23    8.42    6.45
   6  -2 -23    9.03    4.63
  -6  -2  23    4.19    4.45
   6   2 -23    6.03    6.06
   6   2 -23    0.14    4.99
  -6   2  23    3.65    3.76
   4  -2 -23   -3.61    6.45
  -4  -2  23    3.00    3.89
   4  -2 -23    0.68    4.18
   4   2 -23   -2.66    4.75
   4   2 -23   -6.40    5.59
  -4   2  23    1.99    3.54
   2  -2 -23    1.01    6.67
   2   2 -23    5.17    6.95
  11  -3 -23   11.41    5.20
  11  -3 -23    8.94    6.10
 -11  -3  23   -0.09    3.90
 -11   3  23   -3.07    3.25
  11   3 -23    7.54    4.84
  11   3 -23    8.17    4.65
   9  -3 -23    0.19    5.55
   9  -3 -23    0.82    4.05
  -9  -3  23    6.02    4.49
  -9   3  23    0.80    3.82
   9   3 -23   -3.16    4.37
   9   3 -23   10.47    6.20
   7  -3 -23    1.20    4.18
  -7  -3  23   -2.02    4.52
   7  -3 -23   -0.69    6.02
   7   3 -23    0.39    5.17
  -7   3  23    1.44    3.61
   7   3 -23   11.21    6.42
  -5  -3  23   -0.75    4.44
   5  -3 -23    2.66    4.25
   5  -3 -23   -1.37    5.96
  -5   3  23   -3.60    3.65
   5   3 -23    4.61    5.27
   5   3 -23   -3.32    6.16
  12   0 -24    5.08    4.27
  10   0 -24   19.79    6.38
  10   0 -24   13.16    5.48
 -10   0  24   19.48    5.72
  -8   0  24   -1.56    4.27
   8   0 -24    0.67    5.96
   8   0 -24   12.05    5.50
  -6   0  24   -6.08    3.25
   6   0 -24    2.10    4.29
   6   0 -24    1.58    5.87
 -11  -1  24    2.15    4.67
  11  -1 -24   -2.00    4.09
  11  -1 -24    5.86    4.54
  11   1 -24    3.37    4.30
  11   1 -24    7.94    4.65
 -11   1  24    1.69    4.12
  -9  -1  24   -3.24    4.57
   9  -1 -24   -0.23    5.48
   9  -1 -24    0.69    4.13
  -9   1  24    1.57    3.83
   9   1 -24    3.58    4.49
   9   1 -24    5.54    6.21
   7  -1 -24    0.97    6.00
   7  -1 -24    1.45    4.23
  -7  -1  24   -3.79    4.12
   7   1 -24    1.13    6.04
  -7   1  24   -0.50    3.40
   7   1 -24   -3.08    4.72
   0   0   0    0.00    0.00








 _exptl_absorpt_process_details
)
 SADABS 2016/2: Krause, L., Herbst-Irmer, R., Sheldrick G.M. & Stalke D.,
 J. Appl. Cryst. 48 (2015) 3-10
)
 _exptl_absorpt_correction_type   multi-scan
 _exptl_absorpt_correction_T_max  1.0000
 _exptl_absorpt_correction_T_min  0.8847
 _exptl_special_details
)
 The following wavelength and cell were deduced by SADABS from the
 direction cosines etc. They are given here for emergency use only:
 CELL 0.71074   17.853    8.857   19.001   90.021  111.639   89.969
)

_computing_structure_solution     'SHELXT 2018/2 (Sheldrick, 2018)'
_computing_structure_solution     'SHELXT 2018/2 (Sheldrick, 2018)'
_computing_structure_solution     'SHELXT 2018/2 (Sheldrick, 2018)'
_computing_structure_solution     'SHELXT 2018/2 (Sheldrick, 2018)'
_computing_structure_solution     'SHELXT 2018/2 (Sheldrick, 2018)'
_computing_structure_solution     'SHELXT 2018/2 (Sheldrick, 2018)'
_computing_structure_solution     'SHELXT 2018/2 (Sheldrick, 2018)'
;
_shelx_hkl_checksum              12434
_olex2_submission_special_instructions 'No special instructions were received'
