####################################################################### 
# 
# This file contains crystal structure data downloaded from the 
# Cambridge Structural Database (CSD) hosted by the Cambridge 
# Crystallographic Data Centre (CCDC).
# 
# Full information about CCDC data access policies and citation 
# guidelines are available at http://www.ccdc.cam.ac.uk/access/V1 
# 
# Audit and citation data items may have been added by the CCDC. 
# Please retain this information to preserve the provenance of 
# this file and to allow appropriate attribution of the data. 
# 
#######################################################################

data_b12b
_database_code_depnum_ccdc_archive 'CCDC 2104641'
loop_
_audit_author_name
_audit_author_address
'Cynthia S. Day'
;Wake Forest University
United States of America
;
_audit_update_record             
;
2021-08-21 deposited with the CCDC.	2021-12-17 downloaded from the CCDC.
;
_audit_creation_date             2021-08-21
_audit_creation_method           
;
Olex2 1.3
(compiled 2020.11.12 svn.r5f609507 for OlexSys, GUI svn.r6272)
;
_shelx_SHELXL_version_number     2018/3
_audit_contact_author_address    ?
_audit_contact_author_email      ?
_audit_contact_author_phone      ?
_publ_contact_author_id_orcid    ?
_publ_section_references         
;
Dolomanov, O.V., Bourhis, L.J., Gildea, R.J, Howard, J.A.K. & Puschmann, H.
 (2009), J. Appl. Cryst. 42, 339-341.

Sheldrick, G.M. (2015). Acta Cryst. A71, 3-8.

Sheldrick, G.M. (2015). Acta Cryst. C71, 3-8.
;
_chemical_name_common            ?
_chemical_name_systematic        ?
_chemical_formula_moiety         'C7 H7 O3 S, C12 H16 N O2'
_chemical_formula_sum            'C19 H23 N O5 S'
_chemical_formula_weight         377.44
_chemical_absolute_configuration ?
_chemical_melting_point          ?
loop_
_atom_type_symbol
_atom_type_description
_atom_type_scat_dispersion_real
_atom_type_scat_dispersion_imag
_atom_type_scat_source
C C 0.0033 0.0016 'International Tables Vol C Tables 4.2.6.8 and 6.1.1.4'
H H 0.0000 0.0000 'International Tables Vol C Tables 4.2.6.8 and 6.1.1.4'
N N 0.0061 0.0033 'International Tables Vol C Tables 4.2.6.8 and 6.1.1.4'
O O 0.0106 0.0060 'International Tables Vol C Tables 4.2.6.8 and 6.1.1.4'
S S 0.1246 0.1234 'International Tables Vol C Tables 4.2.6.8 and 6.1.1.4'

_shelx_space_group_comment       
;
The symmetry employed for this shelxl refinement is uniquely defined
by the following loop, which should always be used as a source of
symmetry information in preference to the above space-group names.
They are only intended as comments.
;
_space_group_crystal_system      orthorhombic
_space_group_IT_number           33
_space_group_name_H-M_alt        'P n a 21'
_space_group_name_Hall           'P 2c -2n'
loop_
_space_group_symop_operation_xyz
'x, y, z'
'-x, -y, z+1/2'
'x+1/2, -y+1/2, z'
'-x+1/2, y+1/2, z+1/2'

_cell_length_a                   8.2854(6)
_cell_length_b                   10.5892(7)
_cell_length_c                   20.7453(14)
_cell_angle_alpha                90
_cell_angle_beta                 90
_cell_angle_gamma                90
_cell_volume                     1820.1(2)
_cell_formula_units_Z            4
_cell_measurement_reflns_used    9220
_cell_measurement_temperature    193.65
_cell_measurement_theta_max      30.069
_cell_measurement_theta_min      3.519
_shelx_estimated_absorpt_T_max   0.969
_shelx_estimated_absorpt_T_min   0.923
_exptl_absorpt_coefficient_mu    0.208
_exptl_absorpt_correction_T_max  1.0000
_exptl_absorpt_correction_T_min  0.8948
_exptl_absorpt_correction_type   none
_exptl_absorpt_process_details   
;
SADABS-2016/2 (Bruker,2016) was used for absorption correction.
wR2(int) was 0.0634 before and 0.0558 after correction.
The Ratio of minimum to maximum transmission is 0.8948.
The \l/2 correction factor is Not present.
;
_exptl_absorpt_special_details   ?
_exptl_crystal_colour            colourless
_exptl_crystal_colour_primary    colourless
_exptl_crystal_density_diffrn    1.377
_exptl_crystal_density_meas      ?
_exptl_crystal_density_method    ?
_exptl_crystal_description       block
_exptl_crystal_F_000             800
_exptl_crystal_preparation       ?
_exptl_crystal_recrystallization_method 
'The material was recrystallised from a mixture of DCM and pentane  by vapour diffusion.'
_exptl_crystal_size_max          0.39
_exptl_crystal_size_mid          0.21
_exptl_crystal_size_min          0.15
_exptl_transmission_factor_max   ?
_exptl_transmission_factor_min   ?
_diffrn_reflns_av_R_equivalents  0.0488
_diffrn_reflns_av_unetI/netI     0.0337
_diffrn_reflns_Laue_measured_fraction_full 0.998
_diffrn_reflns_Laue_measured_fraction_max 0.997
_diffrn_reflns_limit_h_max       11
_diffrn_reflns_limit_h_min       -11
_diffrn_reflns_limit_k_max       14
_diffrn_reflns_limit_k_min       -14
_diffrn_reflns_limit_l_max       29
_diffrn_reflns_limit_l_min       -28
_diffrn_reflns_number            30904
_diffrn_reflns_point_group_measured_fraction_full 0.998
_diffrn_reflns_point_group_measured_fraction_max 0.997
_diffrn_reflns_theta_full        25.242
_diffrn_reflns_theta_max         30.069
_diffrn_reflns_theta_min         3.519
_diffrn_ambient_temperature      193.65
_diffrn_detector_area_resol_mean ?
_diffrn_measured_fraction_theta_full 0.998
_diffrn_measured_fraction_theta_max 0.997
_diffrn_measurement_device_type  'Bruker APEX-II CCD'
_diffrn_measurement_method       '\f and \w scans'
_diffrn_radiation_type           MoK\a
_diffrn_radiation_wavelength     0.71073
_diffrn_source                   ?
_diffrn_source_current           30.0
_diffrn_source_power             1.5
_diffrn_source_voltage           50.0
_diffrn_special_details          ?
_diffrn_standards_number         0
_reflns_Friedel_coverage         0.949
_reflns_Friedel_fraction_full    0.997
_reflns_Friedel_fraction_max     0.996
_reflns_number_gt                4847
_reflns_number_total             5317
_reflns_special_details          
;
 Reflections were merged by SHELXL according to the crystal
 class for the calculation of statistics and refinement.
 
 _reflns_Friedel_fraction is defined as the number of unique
 Friedel pairs measured divided by the number that would be
 possible theoretically, ignoring centric projections and
 systematic absences.
;
_reflns_threshold_expression     'I > 2\s(I)'
_computing_cell_refinement       'SAINT V8.40B (?, 2016)'
_computing_data_collection       ?
_computing_data_reduction        'SAINT V8.40B (?, 2016)'
_computing_molecular_graphics    'Olex2 1.3 (Dolomanov et al., 2009)'
_computing_publication_material  'Olex2 1.3 (Dolomanov et al., 2009)'
_computing_structure_refinement  'SHELXL 2018/3 (Sheldrick, 2015)'
_computing_structure_solution    'SHELXT 2018/2 (Sheldrick, 2018)'
_refine_diff_density_max         0.411
_refine_diff_density_min         -0.377
_refine_diff_density_rms         0.068
_refine_ls_abs_structure_details 
;
 Flack x determined using 2200 quotients [(I+)-(I-)]/[(I+)+(I-)]
 (Parsons, Flack and Wagner, Acta Cryst. B69 (2013) 249-259).
;
_refine_ls_abs_structure_Flack   -0.02(3)
_refine_ls_extinction_coef       .
_refine_ls_extinction_method     none
_refine_ls_goodness_of_fit_ref   1.027
_refine_ls_hydrogen_treatment    mixed
_refine_ls_matrix_type           full
_refine_ls_number_parameters     240
_refine_ls_number_reflns         5317
_refine_ls_number_restraints     1
_refine_ls_R_factor_all          0.0415
_refine_ls_R_factor_gt           0.0365
_refine_ls_restrained_S_all      1.027
_refine_ls_shift/su_max          0.000
_refine_ls_shift/su_mean         0.000
_refine_ls_structure_factor_coef Fsqd
_refine_ls_weighting_details     
'w=1/[\s^2^(Fo^2^)+(0.0516P)^2^+0.3296P] where P=(Fo^2^+2Fc^2^)/3'
_refine_ls_weighting_scheme      calc
_refine_ls_wR_factor_gt          0.0899
_refine_ls_wR_factor_ref         0.0940
_refine_special_details          ?
_olex2_refinement_description    
;
1. Fixed Uiso
 At 1.2 times of:
  All C(H) groups, All C(H,H) groups
 At 1.5 times of:
  All C(H,H,H) groups
2.a Secondary CH2 refined with riding coordinates:
 C14(H14A,H14B), C9(H9A,H9B), C11(H11A,H11B), C15(H15A,H15B), C12(H12A,H12B)
2.b Aromatic/amide H refined with riding coordinates:
 C17(H17), C22(H22), C21(H21), C3(H3), C18(H18), C7(H7), C4(H4), C5(H5), C6(H6)
2.c Idealised Me refined as rotating group:
 C20(H20A,H20B,H20C)
;
_atom_sites_solution_hydrogens   mixed
_atom_sites_solution_primary     dual
_atom_sites_solution_secondary   ?
loop_
_atom_site_label
_atom_site_type_symbol
_atom_site_fract_x
_atom_site_fract_y
_atom_site_fract_z
_atom_site_U_iso_or_equiv
_atom_site_adp_type
_atom_site_occupancy
_atom_site_site_symmetry_order
_atom_site_calc_flag
_atom_site_refinement_flags_posn
_atom_site_refinement_flags_adp
_atom_site_refinement_flags_occupancy
_atom_site_disorder_assembly
_atom_site_disorder_group
S23 S 0.27114(6) 0.45737(4) 0.40980(3) 0.02493(12) Uani 1 1 d . . . . .
O26 O 0.4000(2) 0.53101(17) 0.38030(9) 0.0329(4) Uani 1 1 d . . . . .
O8 O 0.5864(2) 0.69407(17) 0.50888(9) 0.0355(4) Uani 1 1 d . . . . .
O13 O 0.7889(2) 0.60324(18) 0.27586(8) 0.0332(4) Uani 1 1 d . . . . .
O27 O 0.1296(2) 0.5358(2) 0.42114(11) 0.0445(5) Uani 1 1 d . . . . .
N10 N 0.7208(2) 0.56277(14) 0.41025(10) 0.0198(3) Uani 1 1 d . . . . .
O24 O 0.2358(4) 0.34148(19) 0.37695(12) 0.0637(8) Uani 1 1 d . . . . .
C16 C 0.3444(3) 0.41530(19) 0.48706(10) 0.0235(4) Uani 1 1 d . . . . .
C19 C 0.4727(3) 0.3547(2) 0.60811(11) 0.0289(5) Uani 1 1 d . . . . .
C1 C 0.6941(3) 0.6239(2) 0.52563(11) 0.0242(4) Uani 1 1 d . . . . .
C14 C 0.7348(3) 0.7040(2) 0.31596(12) 0.0285(5) Uani 1 1 d . . . . .
H14A H 0.615612 0.708995 0.314129 0.034 Uiso 1 1 calc R U . . .
H14B H 0.778840 0.784801 0.299565 0.034 Uiso 1 1 calc R U . . .
C17 C 0.4491(3) 0.3126(2) 0.49336(11) 0.0270(4) Uani 1 1 d . . . . .
H17 H 0.476537 0.262856 0.456863 0.032 Uiso 1 1 calc R U . . .
C9 C 0.7770(3) 0.5381(2) 0.47708(11) 0.0230(4) Uani 1 1 d . . . . .
H9A H 0.895132 0.551451 0.479377 0.028 Uiso 1 1 calc R U . . .
H9B H 0.754854 0.448951 0.488347 0.028 Uiso 1 1 calc R U . . .
C22 C 0.3041(3) 0.4872(2) 0.54077(12) 0.0283(5) Uani 1 1 d . . . . .
H22 H 0.233843 0.557617 0.536451 0.034 Uiso 1 1 calc R U . . .
C2 C 0.7483(3) 0.6132(2) 0.59405(11) 0.0267(4) Uani 1 1 d . . . . .
C21 C 0.3666(3) 0.4559(2) 0.60055(12) 0.0304(5) Uani 1 1 d . . . . .
H21 H 0.336567 0.504399 0.637186 0.037 Uiso 1 1 calc R U . . .
C11 C 0.7702(3) 0.45655(19) 0.36599(12) 0.0261(4) Uani 1 1 d . . . . .
H11A H 0.718201 0.376989 0.380032 0.031 Uiso 1 1 calc R U . . .
H11B H 0.888617 0.444815 0.367943 0.031 Uiso 1 1 calc R U . . .
C3 C 0.8810(3) 0.5396(2) 0.61172(12) 0.0324(5) Uani 1 1 d . . . . .
H3 H 0.941075 0.496125 0.579640 0.039 Uiso 1 1 calc R U . . .
C15 C 0.7873(3) 0.68577(19) 0.38505(11) 0.0234(4) Uani 1 1 d . . . . .
H15A H 0.906664 0.684809 0.387530 0.028 Uiso 1 1 calc R U . . .
H15B H 0.747374 0.756629 0.411783 0.028 Uiso 1 1 calc R U . . .
C18 C 0.5128(3) 0.2841(2) 0.55360(12) 0.0297(5) Uani 1 1 d . . . . .
H18 H 0.585289 0.215075 0.557770 0.036 Uiso 1 1 calc R U . . .
C7 C 0.6601(4) 0.6763(2) 0.64140(13) 0.0359(5) Uani 1 1 d . . . . .
H7 H 0.570043 0.726920 0.629734 0.043 Uiso 1 1 calc R U . . .
C20 C 0.5432(4) 0.3236(3) 0.67283(13) 0.0413(6) Uani 1 1 d . . . . .
H20A H 0.568812 0.401920 0.695813 0.062 Uiso 1 1 calc R U . . .
H20B H 0.641932 0.273898 0.667042 0.062 Uiso 1 1 calc R U . . .
H20C H 0.464912 0.274585 0.697902 0.062 Uiso 1 1 calc R U . . .
C4 C 0.9256(4) 0.5299(3) 0.67631(14) 0.0414(6) Uani 1 1 d . . . . .
H4 H 1.016277 0.480130 0.688179 0.050 Uiso 1 1 calc R U . . .
C5 C 0.8380(4) 0.5925(3) 0.72305(13) 0.0453(7) Uani 1 1 d . . . . .
H5 H 0.868893 0.586107 0.767029 0.054 Uiso 1 1 calc R U . . .
C12 C 0.7201(3) 0.4869(2) 0.29763(12) 0.0319(5) Uani 1 1 d . . . . .
H12A H 0.754940 0.417657 0.268743 0.038 Uiso 1 1 calc R U . . .
H12B H 0.600920 0.492579 0.295420 0.038 Uiso 1 1 calc R U . . .
C6 C 0.7047(4) 0.6647(3) 0.70595(13) 0.0437(7) Uani 1 1 d . . . . .
H6 H 0.643741 0.706363 0.738365 0.052 Uiso 1 1 calc R U . . .
H10 H 0.614(4) 0.566(3) 0.4077(16) 0.032(7) Uiso 1 1 d . . . . .

loop_
_atom_site_aniso_label
_atom_site_aniso_U_11
_atom_site_aniso_U_22
_atom_site_aniso_U_33
_atom_site_aniso_U_23
_atom_site_aniso_U_13
_atom_site_aniso_U_12
S23 0.0229(2) 0.0224(2) 0.0294(2) 0.0046(2) -0.0051(2) -0.00407(17)
O26 0.0199(8) 0.0462(10) 0.0326(9) 0.0145(8) -0.0004(7) -0.0015(6)
O8 0.0329(9) 0.0428(9) 0.0309(9) 0.0038(7) 0.0045(7) 0.0119(7)
O13 0.0383(10) 0.0366(9) 0.0246(8) -0.0016(7) 0.0108(7) 0.0008(7)
O27 0.0189(8) 0.0650(12) 0.0498(13) 0.0154(9) -0.0003(8) 0.0074(8)
N10 0.0174(7) 0.0193(6) 0.0226(7) 0.0012(7) 0.0016(7) -0.0010(5)
O24 0.115(2) 0.0275(9) 0.0481(13) 0.0013(9) -0.0373(14) -0.0122(11)
C16 0.0212(10) 0.0230(9) 0.0262(10) 0.0045(8) 0.0006(8) -0.0035(7)
C19 0.0279(11) 0.0328(11) 0.0261(10) 0.0065(8) 0.0005(9) -0.0033(9)
C1 0.0232(10) 0.0265(9) 0.0228(10) 0.0023(8) 0.0032(8) -0.0016(8)
C14 0.0336(12) 0.0282(10) 0.0237(10) 0.0033(8) 0.0047(9) 0.0038(9)
C17 0.0272(11) 0.0263(10) 0.0274(11) 0.0024(8) 0.0043(8) 0.0022(8)
C9 0.0230(10) 0.0254(10) 0.0207(9) 0.0024(7) -0.0006(8) 0.0013(7)
C22 0.0258(11) 0.0248(10) 0.0345(12) 0.0007(8) 0.0030(9) -0.0001(8)
C2 0.0291(11) 0.0273(10) 0.0238(10) 0.0001(8) 0.0008(8) -0.0045(8)
C21 0.0317(12) 0.0305(11) 0.0292(11) -0.0015(8) 0.0043(9) -0.0008(9)
C11 0.0278(11) 0.0197(9) 0.0307(11) -0.0036(8) 0.0018(9) 0.0017(7)
C3 0.0322(13) 0.0390(12) 0.0260(11) 0.0018(9) -0.0028(9) -0.0011(9)
C15 0.0277(10) 0.0197(8) 0.0229(9) 0.0028(7) 0.0022(8) -0.0032(8)
C18 0.0274(11) 0.0292(10) 0.0324(12) 0.0082(9) 0.0028(9) 0.0043(9)
C7 0.0440(14) 0.0332(11) 0.0306(12) -0.0033(9) 0.0048(11) 0.0004(11)
C20 0.0452(16) 0.0506(15) 0.0281(12) 0.0104(11) -0.0033(11) 0.0004(12)
C4 0.0423(16) 0.0482(15) 0.0338(14) 0.0087(11) -0.0112(12) -0.0041(12)
C5 0.0579(19) 0.0535(16) 0.0244(12) 0.0021(11) -0.0070(12) -0.0147(15)
C12 0.0366(13) 0.0321(11) 0.0271(11) -0.0085(9) 0.0029(10) -0.0007(9)
C6 0.0598(19) 0.0422(14) 0.0289(13) -0.0074(10) 0.0068(12) -0.0087(13)

_geom_special_details            
;
 All esds (except the esd in the dihedral angle between two l.s. planes)
 are estimated using the full covariance matrix.  The cell esds are taken
 into account individually in the estimation of esds in distances, angles
 and torsion angles; correlations between esds in cell parameters are only
 used when they are defined by crystal symmetry.  An approximate (isotropic)
 treatment of cell esds is used for estimating esds involving l.s. planes.
;
loop_
_geom_bond_atom_site_label_1
_geom_bond_atom_site_label_2
_geom_bond_distance
_geom_bond_site_symmetry_2
_geom_bond_publ_flag
S23 O26 1.4568(17) . ?
S23 O27 1.456(2) . ?
S23 O24 1.434(2) . ?
S23 C16 1.771(2) . ?
O8 C1 1.213(3) . ?
O13 C14 1.425(3) . ?
O13 C12 1.431(3) . ?
N10 C9 1.486(3) . ?
N10 C11 1.509(3) . ?
N10 C15 1.508(2) . ?
N10 H10 0.89(3) . ?
C16 C17 1.397(3) . ?
C16 C22 1.390(3) . ?
C19 C21 1.395(3) . ?
C19 C18 1.396(3) . ?
C19 C20 1.501(3) . ?
C1 C9 1.520(3) . ?
C1 C2 1.493(3) . ?
C14 H14A 0.9900 . ?
C14 H14B 0.9900 . ?
C14 C15 1.510(3) . ?
C17 H17 0.9500 . ?
C17 C18 1.390(3) . ?
C9 H9A 0.9900 . ?
C9 H9B 0.9900 . ?
C22 H22 0.9500 . ?
C22 C21 1.384(4) . ?
C2 C3 1.396(3) . ?
C2 C7 1.395(3) . ?
C21 H21 0.9500 . ?
C11 H11A 0.9900 . ?
C11 H11B 0.9900 . ?
C11 C12 1.512(4) . ?
C3 H3 0.9500 . ?
C3 C4 1.394(4) . ?
C15 H15A 0.9900 . ?
C15 H15B 0.9900 . ?
C18 H18 0.9500 . ?
C7 H7 0.9500 . ?
C7 C6 1.395(4) . ?
C20 H20A 0.9800 . ?
C20 H20B 0.9800 . ?
C20 H20C 0.9800 . ?
C4 H4 0.9500 . ?
C4 C5 1.381(5) . ?
C5 H5 0.9500 . ?
C5 C6 1.389(5) . ?
C12 H12A 0.9900 . ?
C12 H12B 0.9900 . ?
C6 H6 0.9500 . ?

loop_
_geom_angle_atom_site_label_1
_geom_angle_atom_site_label_2
_geom_angle_atom_site_label_3
_geom_angle
_geom_angle_site_symmetry_1
_geom_angle_site_symmetry_3
_geom_angle_publ_flag
O26 S23 C16 105.30(10) . . ?
O27 S23 O26 110.63(11) . . ?
O27 S23 C16 105.86(12) . . ?
O24 S23 O26 114.10(15) . . ?
O24 S23 O27 113.61(16) . . ?
O24 S23 C16 106.55(11) . . ?
C14 O13 C12 109.60(18) . . ?
C9 N10 C11 110.62(16) . . ?
C9 N10 C15 111.14(16) . . ?
C9 N10 H10 112(2) . . ?
C11 N10 H10 105(2) . . ?
C15 N10 C11 109.50(17) . . ?
C15 N10 H10 108.1(19) . . ?
C17 C16 S23 119.55(17) . . ?
C22 C16 S23 120.35(17) . . ?
C22 C16 C17 120.0(2) . . ?
C21 C19 C18 118.1(2) . . ?
C21 C19 C20 121.0(2) . . ?
C18 C19 C20 120.9(2) . . ?
O8 C1 C9 120.6(2) . . ?
O8 C1 C2 122.7(2) . . ?
C2 C1 C9 116.7(2) . . ?
O13 C14 H14A 109.3 . . ?
O13 C14 H14B 109.3 . . ?
O13 C14 C15 111.57(19) . . ?
H14A C14 H14B 108.0 . . ?
C15 C14 H14A 109.3 . . ?
C15 C14 H14B 109.3 . . ?
C16 C17 H17 120.4 . . ?
C18 C17 C16 119.3(2) . . ?
C18 C17 H17 120.4 . . ?
N10 C9 C1 111.84(18) . . ?
N10 C9 H9A 109.2 . . ?
N10 C9 H9B 109.2 . . ?
C1 C9 H9A 109.2 . . ?
C1 C9 H9B 109.2 . . ?
H9A C9 H9B 107.9 . . ?
C16 C22 H22 120.1 . . ?
C21 C22 C16 119.8(2) . . ?
C21 C22 H22 120.1 . . ?
C3 C2 C1 121.9(2) . . ?
C7 C2 C1 118.4(2) . . ?
C7 C2 C3 119.7(2) . . ?
C19 C21 H21 119.3 . . ?
C22 C21 C19 121.3(2) . . ?
C22 C21 H21 119.3 . . ?
N10 C11 H11A 109.7 . . ?
N10 C11 H11B 109.7 . . ?
N10 C11 C12 109.76(18) . . ?
H11A C11 H11B 108.2 . . ?
C12 C11 H11A 109.7 . . ?
C12 C11 H11B 109.7 . . ?
C2 C3 H3 119.9 . . ?
C4 C3 C2 120.2(3) . . ?
C4 C3 H3 119.9 . . ?
N10 C15 C14 109.53(18) . . ?
N10 C15 H15A 109.8 . . ?
N10 C15 H15B 109.8 . . ?
C14 C15 H15A 109.8 . . ?
C14 C15 H15B 109.8 . . ?
H15A C15 H15B 108.2 . . ?
C19 C18 H18 119.3 . . ?
C17 C18 C19 121.4(2) . . ?
C17 C18 H18 119.3 . . ?
C2 C7 H7 120.2 . . ?
C6 C7 C2 119.7(3) . . ?
C6 C7 H7 120.2 . . ?
C19 C20 H20A 109.5 . . ?
C19 C20 H20B 109.5 . . ?
C19 C20 H20C 109.5 . . ?
H20A C20 H20B 109.5 . . ?
H20A C20 H20C 109.5 . . ?
H20B C20 H20C 109.5 . . ?
C3 C4 H4 120.0 . . ?
C5 C4 C3 120.0(3) . . ?
C5 C4 H4 120.0 . . ?
C4 C5 H5 119.9 . . ?
C4 C5 C6 120.2(3) . . ?
C6 C5 H5 119.9 . . ?
O13 C12 C11 111.7(2) . . ?
O13 C12 H12A 109.3 . . ?
O13 C12 H12B 109.3 . . ?
C11 C12 H12A 109.3 . . ?
C11 C12 H12B 109.3 . . ?
H12A C12 H12B 107.9 . . ?
C7 C6 H6 119.8 . . ?
C5 C6 C7 120.3(3) . . ?
C5 C6 H6 119.8 . . ?

loop_
_geom_torsion_atom_site_label_1
_geom_torsion_atom_site_label_2
_geom_torsion_atom_site_label_3
_geom_torsion_atom_site_label_4
_geom_torsion
_geom_torsion_site_symmetry_1
_geom_torsion_site_symmetry_2
_geom_torsion_site_symmetry_3
_geom_torsion_site_symmetry_4
_geom_torsion_publ_flag
S23 C16 C17 C18 176.67(18) . . . . ?
S23 C16 C22 C21 -177.77(18) . . . . ?
O26 S23 C16 C17 -81.12(19) . . . . ?
O26 S23 C16 C22 95.94(19) . . . . ?
O8 C1 C9 N10 5.7(3) . . . . ?
O8 C1 C2 C3 -174.7(2) . . . . ?
O8 C1 C2 C7 7.0(3) . . . . ?
O13 C14 C15 N10 -58.9(2) . . . . ?
O27 S23 C16 C17 161.66(18) . . . . ?
O27 S23 C16 C22 -21.3(2) . . . . ?
N10 C11 C12 O13 57.7(3) . . . . ?
O24 S23 C16 C17 40.4(2) . . . . ?
O24 S23 C16 C22 -142.5(2) . . . . ?
C16 C17 C18 C19 0.9(4) . . . . ?
C16 C22 C21 C19 1.4(4) . . . . ?
C1 C2 C3 C4 -178.6(2) . . . . ?
C1 C2 C7 C6 177.9(2) . . . . ?
C14 O13 C12 C11 -60.9(3) . . . . ?
C17 C16 C22 C21 -0.7(3) . . . . ?
C9 N10 C11 C12 -176.85(19) . . . . ?
C9 N10 C15 C14 177.03(18) . . . . ?
C9 C1 C2 C3 7.4(3) . . . . ?
C9 C1 C2 C7 -170.8(2) . . . . ?
C22 C16 C17 C18 -0.4(3) . . . . ?
C2 C1 C9 N10 -176.38(18) . . . . ?
C2 C3 C4 C5 0.3(4) . . . . ?
C2 C7 C6 C5 1.1(4) . . . . ?
C21 C19 C18 C17 -0.3(4) . . . . ?
C11 N10 C9 C1 -165.28(18) . . . . ?
C11 N10 C15 C14 54.5(2) . . . . ?
C3 C2 C7 C6 -0.4(4) . . . . ?
C3 C4 C5 C6 0.4(4) . . . . ?
C15 N10 C9 C1 72.9(2) . . . . ?
C15 N10 C11 C12 -54.0(2) . . . . ?
C18 C19 C21 C22 -0.9(4) . . . . ?
C7 C2 C3 C4 -0.3(4) . . . . ?
C20 C19 C21 C22 178.4(2) . . . . ?
C20 C19 C18 C17 -179.6(2) . . . . ?
C4 C5 C6 C7 -1.1(5) . . . . ?
C12 O13 C14 C15 61.5(3) . . . . ?

_shelx_res_file                  
;
TITL b12b_a.res in Pna2(1)
    b12b.res
    created by SHELXL-2018/3 at 12:01:26 on 21-Aug-2021
REM Old TITL b12b in Pna2(1)
REM SHELXT solution in Pna2(1): R1 0.097, Rweak 0.011, Alpha 0.002
REM <I/s> 0.495 for 245 systematic absences, Orientation as input
REM Flack x = 0.010 ( 0.029 ) from 1680 Parsons' quotients
REM Formula found by SHELXT: C19 N O5 S
CELL 0.71073 8.2854 10.5892 20.7453 90 90 90
ZERR 4 0.0006 0.0007 0.0014 0 0 0
LATT -1
SYMM -X,-Y,0.5+Z
SYMM 0.5+X,0.5-Y,+Z
SYMM 0.5-X,0.5+Y,0.5+Z
SFAC C H N O S
UNIT 76 92 4 20 4

L.S. 10
PLAN  1
SIZE 0.15 0.21 0.39
TEMP -79.5
CONF
BOND
list 4
fmap 2
MORE -1
BOND $H
ACTA
REM <olex2.extras>
REM <HklSrc "%./b12b.hkl">
REM </olex2.extras>

WGHT    0.051600    0.329600
FVAR       0.48828
S23   5    0.271143    0.457366    0.409799    11.00000    0.02294    0.02243 =
         0.02942    0.00457   -0.00512   -0.00407
O26   4    0.399986    0.531010    0.380299    11.00000    0.01987    0.04623 =
         0.03265    0.01448   -0.00040   -0.00148
O8    4    0.586378    0.694067    0.508879    11.00000    0.03286    0.04279 =
         0.03092    0.00385    0.00449    0.01194
O13   4    0.788870    0.603242    0.275861    11.00000    0.03829    0.03662 =
         0.02465   -0.00159    0.01076    0.00076
O27   4    0.129632    0.535847    0.421138    11.00000    0.01887    0.06496 =
         0.04979    0.01540   -0.00033    0.00736
N10   3    0.720807    0.562769    0.410253    11.00000    0.01736    0.01933 =
         0.02260    0.00118    0.00165   -0.00099
O24   4    0.235765    0.341476    0.376952    11.00000    0.11549    0.02750 =
         0.04814    0.00132   -0.03731   -0.01216
C16   1    0.344378    0.415297    0.487061    11.00000    0.02120    0.02300 =
         0.02622    0.00448    0.00060   -0.00351
C19   1    0.472665    0.354743    0.608113    11.00000    0.02791    0.03279 =
         0.02609    0.00649    0.00050   -0.00332
C1    1    0.694139    0.623868    0.525633    11.00000    0.02323    0.02650 =
         0.02277    0.00233    0.00322   -0.00162
C14   1    0.734843    0.704034    0.315964    11.00000    0.03365    0.02815 =
         0.02368    0.00335    0.00466    0.00378
AFIX  23
H14A  2    0.615612    0.708995    0.314129    11.00000   -1.20000
H14B  2    0.778840    0.784801    0.299565    11.00000   -1.20000
AFIX   0

C17   1    0.449148    0.312625    0.493359    11.00000    0.02717    0.02629 =
         0.02743    0.00241    0.00433    0.00216
AFIX  43
H17   2    0.476537    0.262856    0.456863    11.00000   -1.20000
AFIX   0

C9    1    0.777003    0.538134    0.477084    11.00000    0.02304    0.02537 =
         0.02068    0.00238   -0.00061    0.00133
AFIX  23
H9A   2    0.895132    0.551451    0.479377    11.00000   -1.20000
H9B   2    0.754854    0.448951    0.488347    11.00000   -1.20000
AFIX   0

C22   1    0.304076    0.487210    0.540772    11.00000    0.02579    0.02476 =
         0.03446    0.00073    0.00302   -0.00008
AFIX  43
H22   2    0.233843    0.557617    0.536451    11.00000   -1.20000
AFIX   0

C2    1    0.748319    0.613178    0.594051    11.00000    0.02915    0.02726 =
         0.02377    0.00012    0.00077   -0.00450
C21   1    0.366555    0.455947    0.600554    11.00000    0.03166    0.03045 =
         0.02921   -0.00151    0.00431   -0.00083
AFIX  43
H21   2    0.336567    0.504399    0.637186    11.00000   -1.20000
AFIX   0

C11   1    0.770176    0.456548    0.365985    11.00000    0.02783    0.01967 =
         0.03073   -0.00361    0.00181    0.00170
AFIX  23
H11A  2    0.718201    0.376989    0.380032    11.00000   -1.20000
H11B  2    0.888617    0.444815    0.367943    11.00000   -1.20000
AFIX   0
C3    1    0.881032    0.539616    0.611720    11.00000    0.03219    0.03899 =
         0.02604    0.00181   -0.00281   -0.00106
AFIX  43
H3    2    0.941075    0.496125    0.579640    11.00000   -1.20000
AFIX   0
C15   1    0.787344    0.685774    0.385054    11.00000    0.02768    0.01967 =
         0.02285    0.00285    0.00223   -0.00318
AFIX  23
H15A  2    0.906664    0.684809    0.387530    11.00000   -1.20000
H15B  2    0.747374    0.756629    0.411783    11.00000   -1.20000
AFIX   0

C18   1    0.512833    0.284124    0.553596    11.00000    0.02742    0.02922 =
         0.03237    0.00822    0.00284    0.00432
AFIX  43
H18   2    0.585289    0.215075    0.557770    11.00000   -1.20000
AFIX   0

C7    1    0.660083    0.676291    0.641398    11.00000    0.04403    0.03316 =
         0.03057   -0.00329    0.00485    0.00042
AFIX  43
H7    2    0.570043    0.726920    0.629734    11.00000   -1.20000
AFIX   0

C20   1    0.543202    0.323583    0.672834    11.00000    0.04518    0.05061 =
         0.02811    0.01035   -0.00329    0.00039
AFIX 137
H20A  2    0.568812    0.401920    0.695813    11.00000   -1.50000
H20B  2    0.641932    0.273898    0.667042    11.00000   -1.50000
H20C  2    0.464912    0.274585    0.697902    11.00000   -1.50000
AFIX   0

C4    1    0.925593    0.529860    0.676307    11.00000    0.04230    0.04819 =
         0.03381    0.00873   -0.01115   -0.00414
AFIX  43
H4    2    1.016277    0.480130    0.688179    11.00000   -1.20000
AFIX   0
C5    1    0.837969    0.592456    0.723052    11.00000    0.05790    0.05347 =
         0.02440    0.00212   -0.00695   -0.01467
AFIX  43
H5    2    0.868893    0.586107    0.767029    11.00000   -1.20000
AFIX   0
C12   1    0.720057    0.486884    0.297632    11.00000    0.03658    0.03207 =
         0.02707   -0.00846    0.00287   -0.00072
AFIX  23
H12A  2    0.754940    0.417657    0.268743    11.00000   -1.20000
H12B  2    0.600920    0.492579    0.295420    11.00000   -1.20000
AFIX   0
C6    1    0.704732    0.664682    0.705946    11.00000    0.05980    0.04223 =
         0.02892   -0.00735    0.00680   -0.00865
AFIX  43
H6    2    0.643741    0.706363    0.738365    11.00000   -1.20000
AFIX   0
H10   2    0.613505    0.565990    0.407728    11.00000    0.03226
HKLF 4




REM  b12b_a.res in Pna2(1)
REM wR2 = 0.0940, GooF = S = 1.027, Restrained GooF = 1.027 for all data
REM R1 = 0.0365 for 4847 Fo > 4sig(Fo) and 0.0415 for all 5317 data
REM 240 parameters refined using 1 restraints

END

WGHT      0.0516      0.3296

REM Highest difference peak  0.411,  deepest hole -0.377,  1-sigma level  0.068
Q1    1   0.1264  0.4641  0.4138  11.00000  0.05    0.41
;
_shelx_res_checksum              30249
_shelx_hkl_file                  
;
   2   0   0 5846.11  281.57
  -2   0   0 7301.07  282.27
   2   0   0 7136.39  282.67
  -3   0   0    0.40    0.40
   3   0   0   -0.30    0.80
  -3   0   0   -0.10    0.30
   3   0   0    0.20    0.30
   3   0   0    0.40    0.40
  -4   0   0  887.81   37.90
  -4   0   0  864.61   38.10
   4   0   0  925.31   38.00
   4   0   0  866.91   38.10
   4   0   0  916.41   38.60
   5   0   0   -0.50    0.50
  -5   0   0   -0.10    0.40
  -5   0   0   -0.60    0.60
   5   0   0    0.00    0.50
   5   0   0   -0.50    0.90
  -6   0   0  494.35   21.90
   6   0   0  472.65   21.80
   6   0   0  485.75   21.60
  -6   0   0  502.95   21.60
   7   0   0    0.40    0.80
  -7   0   0   -0.30    0.90
   7   0   0   -0.70    0.70
   8   0   0   89.89    5.60
  -8   0   0   85.29    5.70
   9   0   0    1.90    1.50
  -9   0   0    0.30    1.30
 -10   0   0   -0.50    1.40
  10   0   0    0.90    1.60
 -11   0   0   -0.40    1.80
  11   0   0    2.60    2.00
   2   1   0  530.15   23.20
  -2   1   0  543.15   23.00
   2   1   0  538.15   23.00
  -2  -1   0  544.35   23.10
   2  -1   0  558.04   23.10
  -2  -1   0  531.55   22.90
   2  -1   0  539.65   23.00
  -3   1   0   79.69    4.10
   3   1   0   81.79    4.10
   3  -1   0   82.59    4.10
   3  -1   0   77.89    4.10
  -3  -1   0   84.59    4.10
   3   1   0   85.99    4.00
  -3  -1   0   83.29    4.20
   3   1   0   77.29    4.40
   4  -1   0    0.50    0.60
  -4   1   0    1.30    0.50
   4   1   0    1.00    0.80
   4  -1   0    1.10    0.60
   4   1   0    0.50    0.40
  -4   1   0    1.90    0.70
  -4  -1   0    1.20    0.60
  -4  -1   0    0.80    0.60
   4   1   0    1.60    0.70
   5  -1   0  240.18   11.40
  -5  -1   0  240.18   11.40
   5   1   0  249.97   11.20
  -5   1   0  261.37   11.00
  -5   1   0  244.28   11.50
   5  -1   0  251.47   11.40
  -5  -1   0  241.08   11.40
   5  -1   0  252.07   12.00
   5   1   0  229.08   11.90
   5   1   0  241.88   11.40
  -6  -1   0    3.20    1.10
   6  -1   0    4.30    1.10
   6   1   0    5.80    1.30
   6   1   0    4.50    1.70
  -6  -1   0    4.40    1.10
  -6   1   0    4.60    1.20
   6   1   0    4.60    1.00
   6  -1   0    4.50    1.20
  -7  -1   0  109.29    6.10
  -7   1   0  106.69    6.30
   7  -1   0  104.79    6.20
   7   1   0  110.89    6.30
  -7  -1   0  112.69    6.30
   7  -1   0  112.19    6.10
   8  -1   0    1.30    1.40
   8  -1   0    0.10    1.00
   8   1   0    0.40    1.10
  -8   1   0    0.90    1.10
  -8  -1   0    0.80    1.20
  -9   1   0   15.50    2.80
   9   1   0   17.30    2.70
   9  -1   0   23.20    3.10
  -9  -1   0   20.50    3.00
 -10   1   0    1.30    1.80
  10   1   0    0.50    1.50
  10  -1   0    1.20    1.60
 -10  -1   0    1.30    1.60
  11  -1   0    3.80    2.20
 -11   1   0    4.30    2.30
  11   1   0    1.40    2.10
 -11  -1   0    5.30    2.20
   0  -2   0 3751.42  156.48
  -1  -2   0 9999.00  374.26
  -1  -2   0 8731.73  373.56
   1  -2   0 9867.21  373.76
   1  -2   0 7784.52  373.26
   1   2   0 7858.51  373.26
  -1   2   0 9442.55  373.36
   2   2   0 2859.51  118.79
   2  -2   0 3058.39  118.89
   2  -2   0 2642.14  118.69
   2   2   0 2727.13  118.89
  -2  -2   0 2929.81  118.89
  -2   2   0 2922.61  118.79
  -2  -2   0 2732.73  118.59
  -3  -2   0  919.81   39.00
   3   2   0  914.31   39.20
   3  -2   0  896.91   39.10
  -3  -2   0  954.10   39.40
   3   2   0  953.40   38.90
   3  -2   0  916.41   39.30
   3   2   0  909.61   39.50
  -3   2   0  906.91   39.20
   4   2   0   58.29    3.10
  -4   2   0   60.29    3.50
   4   2   0   58.59    3.40
   4  -2   0   59.39    3.30
   4  -2   0   61.19    3.50
  -4  -2   0   52.49    3.40
  -4  -2   0   58.69    3.30
   4   2   0   60.99    3.80
  -5   2   0  167.78    8.30
   5  -2   0  165.78    8.20
   5  -2   0  166.38    8.10
  -5  -2   0  160.18    8.00
  -5  -2   0  163.48    8.20
   5   2   0  170.68    8.70
   5   2   0  177.78    7.80
   5   2   0  157.88    8.10
  -6   2   0  166.38    8.70
  -6  -2   0  172.88    8.50
   6   2   0  164.68    9.30
   6   2   0  171.08    8.60
   6  -2   0  180.18    8.70
  -6  -2   0  167.28    8.60
   6  -2   0  170.88    8.50
   6   2   0  167.88    8.10
  -7   2   0   -0.80    0.70
   7   2   0   -1.00    1.90
   7   2   0   -0.30    0.90
  -7  -2   0    0.00    0.90
   7  -2   0   -0.20    0.70
   7  -2   0    0.50    0.90
  -7  -2   0    0.50    0.90
   8  -2   0   98.79    6.00
   8  -2   0   98.49    5.90
  -8   2   0   97.79    6.20
  -8  -2   0   92.39    5.90
   8   2   0   96.89    6.10
  -9   2   0   -0.20    1.30
   9   2   0   -0.20    1.30
  -9  -2   0    0.70    1.40
   9  -2   0   -0.90    1.20
 -10   2   0    1.30    1.80
  10  -2   0   -2.10    1.30
 -10  -2   0    1.30    1.70
  10   2   0    0.60    1.60
 -11  -2   0   -0.50    1.90
  11   2   0   -1.00    1.70
  11  -2   0    1.50    1.90
 -11   2   0    0.40    2.10
   0  -3   0    0.10    0.40
   0  -3   0    0.00    0.30
   0  -3   0   -0.30    0.30
  -1   3   0 1855.31   77.89
  -1   3   0 1936.51   77.99
   1   3   0 1955.90   77.99
  -1  -3   0 1765.32   78.19
   1  -3   0 1942.81   78.19
   1   3   0 1719.93   77.89
   1  -3   0 1817.52   78.09
   1   3   0 1934.71   77.99
  -1  -3   0 1825.82   78.09
  -2  -3   0    4.20    0.90
   2   3   0    3.70    0.70
   2   3   0    3.40    0.60
  -2  -3   0    4.40    0.70
   2  -3   0    3.80    0.70
   2  -3   0    3.50    0.70
  -2   3   0    4.00    0.70
   2   3   0    4.60    0.80
   3   3   0  312.57   13.10
   3  -3   0  324.67   13.70
  -3  -3   0  283.87   13.60
  -3  -3   0  304.27   13.20
   3  -3   0  295.97   13.40
   3   3   0  289.77   13.50
   3   3   0  285.27   13.60
  -3   3   0  312.17   13.50
   4  -3   0  267.17   12.30
   4   3   0  271.27   12.80
   4  -3   0  256.67   12.50
   4   3   0  286.47   12.00
   4   3   0  271.37   12.40
  -4  -3   0  272.57   12.20
  -4  -3   0  273.47   12.70
  -4   3   0  270.37   12.50
   5   3   0   67.09    3.60
   5   3   0   74.89    4.60
   5  -3   0   70.29    4.20
   5  -3   0   63.39    3.90
  -5  -3   0   59.39    4.10
   5   3   0   68.19    4.10
  -5   3   0   65.49    4.10
  -5  -3   0   68.89    3.90
   6  -3   0   50.49    3.80
   6  -3   0   58.99    3.80
   6   3   0   57.89    3.80
   6   3   0   65.29    4.60
  -6   3   0   50.39    3.80
  -6  -3   0   55.69    3.60
  -6  -3   0   53.89    3.90
   7  -3   0   63.19    4.50
   7  -3   0   71.39    4.60
   7   3   0   72.19    4.70
  -7  -3   0   70.89    4.50
   7   3   0   71.19    5.60
  -7  -3   0   73.69    4.80
  -7   3   0   62.09    4.70
  -8  -3   0    0.70    1.00
  -8   3   0    0.80    1.20
  -8  -3   0    0.50    1.10
   8  -3   0   -0.60    1.20
   8  -3   0   -0.50    1.00
   8   3   0    1.70    1.30
  -9   3   0   64.09    5.10
   9  -3   0   64.69    4.90
   9  -3   0   64.39    4.80
   9   3   0   65.69    5.10
  -9  -3   0   65.09    4.90
 -10   3   0   60.09    6.00
 -10  -3   0   58.39    5.50
  10  -3   0   64.49    5.20
  10   3   0   55.49    5.40
  11   3   0    0.40    2.10
 -11   3   0   -1.00    2.30
  11  -3   0    2.80    2.30
   0  -4   0  420.76   18.00
   0  -4   0  419.26   17.70
   0  -4   0  457.95   18.10
   0  -4   0  359.16   17.90
   1   4   0    5.60    0.80
   1   4   0    7.10    0.90
   1  -4   0    6.40    0.90
  -1   4   0    6.90    0.90
  -1  -4   0    5.80    0.90
   1  -4   0    7.80    1.00
   1  -4   0    6.40    0.90
   1   4   0    7.30    0.80
  -1  -4   0    7.00    0.80
  -1  -4   0    6.40    1.00
  -1   4   0    6.30    0.60
   2  -4   0   57.69    3.20
   2   4   0   54.79    3.10
   2   4   0   53.29    3.10
  -2  -4   0   63.89    3.00
   2   4   0   59.49    3.10
  -2   4   0   56.19    3.10
  -2  -4   0   57.79    3.30
  -3  -4   0  244.18   10.90
   3   4   0  251.07   11.40
  -3  -4   0  242.18   11.50
   3   4   0  233.58   11.30
  -3   4   0  234.78   11.20
   3   4   0  269.77   11.00
   3  -4   0  227.88   11.40
   3  -4   0  260.27   11.30
   4  -4   0   50.69    3.10
   4   4   0   54.59    3.60
  -4   4   0   47.30    3.20
   4  -4   0   43.30    3.20
  -4  -4   0   46.10    3.40
   4   4   0   49.20    3.20
   4   4   0   54.99    2.90
  -4  -4   0   47.80    2.90
  -5   4   0    0.90    0.80
   5  -4   0    0.30    0.80
  -5  -4   0   -0.20    0.70
   5   4   0   -0.30    0.90
   5  -4   0    1.20    0.70
  -5  -4   0    0.30    0.60
   5   4   0    0.30    0.70
   6  -4   0  130.49    7.00
   6   4   0  130.29    7.10
  -6   4   0  136.19    7.20
   6   4   0  128.89    7.60
  -6  -4   0  130.59    7.30
   6  -4   0  127.89    7.10
  -6  -4   0  126.09    6.70
  -7  -4   0    1.50    1.10
   7   4   0    1.20    1.60
   7   4   0    1.20    1.20
  -7   4   0    0.40    1.00
  -7  -4   0    0.30    0.90
   7  -4   0    1.30    1.00
   7  -4   0    0.90    1.00
   8   4   0   62.09    4.70
   8  -4   0   61.39    4.40
   8  -4   0   55.39    4.30
  -8   4   0   56.19    4.50
  -8  -4   0   57.99    4.20
  -8  -4   0   55.69    4.60
  -9  -4   0   14.30    2.80
  -9   4   0   20.70    3.20
   9  -4   0   18.60    2.80
   9   4   0   19.00    3.10
  -9  -4   0   17.80    3.20
   9  -4   0   21.20    3.10
  10   4   0    1.10    1.80
 -10   4   0    2.80    2.10
  10  -4   0    3.20    1.90
 -11   4   0   -3.80    2.20
  11   4   0    1.20    2.30
   0  -5   0   -0.20    0.50
   0  -5   0   -0.10    0.50
   0  -5   0    0.10    0.50
   0  -5   0    0.10    0.40
   1   5   0  508.45   21.30
   1   5   0  476.55   20.90
   1   5   0  434.76   21.10
  -1  -5   0  467.05   21.30
   1  -5   0  483.95   21.40
   1  -5   0  495.85   21.30
  -1  -5   0  496.15   20.90
  -1   5   0  508.85   21.10
  -1   5   0  485.75   20.60
   1  -5   0  519.75   21.20
  -1  -5   0  493.85   21.50
   2   5   0    0.10    0.40
  -2  -5   0    0.40    0.60
   2  -5   0    0.50    0.60
  -2  -5   0    0.50    0.60
   2  -5   0   -0.40    0.50
   2  -5   0    0.50    0.50
  -2   5   0    1.40    0.60
  -2  -5   0    0.10    0.50
   2   5   0    1.10    0.50
   2   5   0    0.90    0.60
  -2   5   0   -0.60    0.40
  -3  -5   0    5.90    1.30
   3   5   0    6.00    1.20
   3   5   0    5.40    0.90
   3   5   0    5.80    1.20
   3  -5   0    5.90    1.10
  -3   5   0    7.70    1.20
   3  -5   0    6.70    1.30
  -3  -5   0    8.10    1.00
  -4   5   0  306.37   13.60
   4   5   0  286.47   13.70
   4   5   0  305.87   13.10
   4  -5   0  282.47   13.40
   4   5   0  278.77   13.50
  -4  -5   0  310.47   13.10
  -4  -5   0  290.57   13.90
   4  -5   0  270.37   13.70
   5  -5   0   25.00    2.50
  -5  -5   0   24.10    2.10
   5  -5   0   28.00    2.90
   5   5   0   27.90    2.80
  -5  -5   0   27.10    3.10
   5   5   0   31.10    3.30
  -5   5   0   21.10    2.50
  -6   5   0   40.90    3.30
   6   5   0   40.30    4.30
  -6  -5   0   35.80    3.40
  -6  -5   0   41.90    3.00
   6   5   0   38.60    3.30
   6  -5   0   38.40    3.30
   6  -5   0   41.30    3.20
   7  -5   0   27.90    3.20
  -7  -5   0   22.50    3.00
   7  -5   0   29.30    3.10
   7   5   0   23.90    3.60
  -7   5   0   23.70    3.00
   7   5   0   26.30    3.20
  -7  -5   0   28.10    2.90
   8   5   0   44.00    4.50
  -8   5   0   47.30    4.00
   8  -5   0   42.20    4.30
   8   5   0   46.80    5.30
  -8  -5   0   42.80    4.60
   8  -5   0   43.30    4.20
  -9  -5   0    2.50    1.60
   9  -5   0    0.00    1.30
   9   5   0    0.80    1.50
   9  -5   0   -0.70    1.20
  -9   5   0    2.70    1.70
  10  -5   0   67.79    7.00
  10  -5   0   60.09    5.80
 -10   5   0   66.69    5.50
  10   5   0   60.19    5.90
 -11   5   0   -1.30    2.40
   0  -6   0  495.65   20.30
   0  -6   0  436.56   20.20
   0   6   0  457.85   20.20
   0   6   0  433.86   19.40
   0  -6   0  444.46   20.20
   0  -6   0  484.75   19.80
   0   6   0  445.86   20.20
   1  -6   0  214.88   10.10
   1   6   0  218.28   10.10
  -1  -6   0  232.98    9.60
  -1   6   0  216.58    9.80
   1   6   0  209.48    9.90
  -1  -6   0  228.38   10.30
   1   6   0  196.28    9.50
  -1  -6   0  216.18   10.20
  -1   6   0  213.68    9.30
   1  -6   0  205.48   10.20
   1  -6   0  209.68    9.90
   2   6   0   28.50    2.10
   2  -6   0   26.50    1.90
  -2   6   0   27.30    1.90
   2   6   0   27.80    2.00
   2   6   0   26.20    2.00
  -2  -6   0   30.40    1.90
  -2  -6   0   24.90    2.20
  -2  -6   0   27.40    2.40
   2  -6   0   27.70    2.20
  -2   6   0   21.10    1.90
   3   6   0   22.90    1.90
  -3   6   0   23.50    2.20
  -3  -6   0   21.10    2.60
   3   6   0   18.10    2.20
   3  -6   0   20.50    2.10
   3  -6   0   25.80    2.60
  -3  -6   0   22.10    1.70
   3   6   0   16.70    2.00
   4  -6   0    9.00    1.70
   4  -6   0    8.60    1.50
   4   6   0   10.70    1.80
  -4  -6   0   10.00    1.80
  -4   6   0    9.50    1.60
  -4  -6   0   11.50    1.50
   4   6   0    9.80    1.80
   5  -6   0   80.39    4.70
   5  -6   0   72.29    4.90
  -5  -6   0   69.19    5.10
  -5   6   0   79.99    4.80
   5   6   0   74.89    5.10
   5   6   0   75.59    4.80
   6  -6   0   21.60    2.80
   6  -6   0   16.80    2.40
  -6  -6   0   18.50    2.80
  -6   6   0   15.70    2.30
   6   6   0   14.00    2.70
   6   6   0   21.70    2.80
   7   6   0   58.39    5.60
  -7   6   0   61.29    4.50
   7  -6   0   46.50    4.20
  -7  -6   0   62.69    4.80
   7   6   0   60.79    4.50
   7  -6   0   49.80    4.10
   8  -6   0   20.60    3.00
  -8   6   0   19.10    2.90
   8   6   0   12.70    2.40
   8   6   0   14.90    3.10
  -8  -6   0   10.60    2.60
   8  -6   0   19.80    2.80
   9   6   0    2.30    1.60
   9  -6   0    1.80    1.50
  -9  -6   0   -0.80    1.50
   9  -6   0    1.90    1.60
  -9   6   0    0.40    1.40
  10  -6   0    2.90    2.00
 -10   6   0    2.60    1.70
 -10  -6   0    1.50    2.70
  10   6   0    4.30    2.20
   0   7   0    0.00    0.60
   0   7   0   -0.20    0.40
   0  -7   0    0.40    0.50
   0  -7   0   -0.50    0.60
   0   7   0   -0.90    0.50
   0  -7   0   -1.00    0.50
  -1   7   0   14.30    1.60
   1  -7   0   17.10    1.90
   1  -7   0   17.10    2.00
   1  -7   0   17.70    2.10
   1   7   0   14.60    1.80
   1   7   0   15.20    1.50
  -1  -7   0   18.00    2.20
  -1   7   0   15.50    1.20
   1   7   0   12.10    1.70
  -1  -7   0   17.60    2.00
  -1  -7   0   16.20    1.40
   2   7   0   81.49    4.40
   2  -7   0   73.69    4.60
  -2   7   0   81.49    4.40
   2   7   0   80.89    4.50
   2  -7   0   83.99    4.90
   2  -7   0   81.49    4.30
  -2  -7   0   80.49    4.20
  -2  -7   0   82.89    4.80
   2   7   0   72.69    4.40
  -2  -7   0   78.89    5.00
   3   7   0    8.50    1.40
   3  -7   0    6.20    1.30
  -3   7   0    4.80    1.20
   3   7   0    7.00    1.30
   3   7   0    6.90    1.40
  -3  -7   0    6.00    1.50
   3  -7   0    9.90    1.80
   3   7   0    7.20    1.40
   4  -7   0  135.99    7.20
   4  -7   0  148.59    7.80
   4   7   0  129.89    7.30
  -4  -7   0  128.19    7.70
  -4   7   0  129.89    7.20
   4   7   0  142.59    7.50
   5   7   0    3.20    1.30
   5   7   0    2.80    1.50
   5  -7   0    4.00    1.50
  -5  -7   0    3.70    1.40
   5  -7   0    6.70    1.50
  -5   7   0    2.20    1.10
  -6   7   0   43.60    3.50
   6  -7   0   43.90    3.80
   6   7   0   39.00    4.00
   6   7   0   44.70    4.60
   6  -7   0   32.00    3.40
  -6  -7   0   38.40    4.30
   7  -7   0   -0.40    1.10
  -7   7   0    1.70    1.20
   7   7   0   -0.40    1.10
   7  -7   0   -0.20    1.20
   7   7   0   -2.20    1.30
  -7  -7   0   -0.80    1.20
   8  -7   0    8.80    2.10
   8   7   0    9.60    2.80
   8   7   0    9.50    2.30
  -8   7   0    5.60    1.90
  -8  -7   0    8.40    2.50
   8  -7   0    7.20    2.00
  -9  -7   0    5.10    2.30
  -9   7   0    3.20    1.80
   9  -7   0    0.10    1.70
   9  -7   0    6.50    2.30
   9   7   0    3.10    1.90
  10   7   0   26.60    4.30
 -10   7   0   24.40    4.00
  10  -7   0   24.60    4.00
 -10  -7   0   30.90    4.60
   0   8   0  521.45   23.00
   0  -8   0  572.64   24.10
   0  -8   0  531.75   24.00
   0   8   0  559.04   24.10
   0  -8   0  543.55   23.30
   0   8   0  496.65   23.80
   1  -8   0   38.70    3.00
  -1  -8   0   39.90    3.10
   1  -8   0   40.90    2.90
  -1   8   0   36.20    2.50
   1   8   0   34.60    2.80
   1   8   0   36.50    2.40
  -1  -8   0   44.20    3.30
   1   8   0   39.50    3.00
   1  -8   0   33.80    3.00
   2   8   0   31.50    2.50
   2  -8   0   36.80    3.10
   2  -8   0   36.20    2.90
  -2  -8   0   34.10    2.90
  -2   8   0   35.80    2.50
  -2  -8   0   35.70    3.20
   2   8   0   32.20    2.70
   2   8   0   32.10    2.60
  -3   8   0   65.59    4.30
  -3  -8   0   76.29    5.10
   3  -8   0   73.19    4.60
   3   8   0   76.09    4.90
   3   8   0   70.69    4.40
   3   8   0   64.69    4.60
   3   8   0   79.79    4.90
   3  -8   0   78.79    5.00
  -4   8   0    2.40    1.20
   4   8   0    4.70    1.50
  -4  -8   0    3.50    1.50
   4  -8   0    3.70    1.50
   4   8   0    4.00    1.30
   4  -8   0    4.80    1.40
   5   8   0   56.99    4.30
   5  -8   0   61.09    4.30
  -5   8   0   54.89    4.10
   5  -8   0   62.79    4.60
   5   8   0   55.99    4.60
  -5  -8   0   55.39    4.60
  -6   8   0   33.40    3.60
  -6  -8   0   33.40    4.20
   6   8   0   36.80    4.40
   6  -8   0   36.40    3.70
   6  -8   0   38.70    4.20
   6   8   0   29.80    3.50
   7   8   0   -0.10    1.70
   7  -8   0   -0.40    1.20
   7   8   0    1.00    1.30
  -7   8   0    1.50    1.40
   7  -8   0    0.00    1.30
  -7  -8   0   -0.90    1.30
  -8   8   0    7.30    2.20
   8  -8   0    2.80    1.80
  -8  -8   0    4.40    1.90
   8   8   0    8.10    2.90
   8  -8   0    8.50    2.30
   8   8   0    9.50    2.30
  -9   8   0    4.20    2.10
  -9  -8   0    2.00    2.20
   9  -8   0    1.30    1.80
   9   8   0    0.40    2.90
   9   8   0    1.80    1.90
   0   9   0    0.80    1.00
   0   9   0    0.10    0.60
   0  -9   0    0.50    0.90
   0   9   0   -0.30    0.80
   0  -9   0    0.90    1.10
   1   9   0    2.40    1.10
   1  -9   0    6.20    1.50
   1   9   0    2.00    1.00
   1   9   0    3.20    0.90
  -1  -9   0    1.40    1.00
   1  -9   0    3.40    1.40
  -1   9   0    1.30    1.20
  -1   9   0    3.50    0.90
  -1   9   0    2.10    1.20
  -1  -9   0    1.00    1.20
   2  -9   0   16.70    2.30
   2  -9   0   13.90    2.30
   2   9   0   11.10    1.70
  -2   9   0   15.20    1.90
  -2  -9   0   14.30    2.30
   2   9   0   10.40    1.90
  -2  -9   0   14.30    2.40
   2   9   0   13.40    1.90
  -3   9   0    3.80    1.30
   3   9   0    2.90    1.30
   3   9   0    5.40    1.30
   3  -9   0    6.40    1.60
  -3  -9   0    4.70    1.80
   3  -9   0    5.90    1.80
  -4  -9   0   54.29    4.80
   4   9   0   65.19    4.50
   4  -9   0   54.79    4.60
   4   9   0   61.59    4.50
   4  -9   0   60.79    4.40
  -4   9   0   65.19    4.30
  -5  -9   0    4.40    1.90
   5   9   0    5.30    1.60
   5   9   0    4.10    1.80
   5  -9   0    2.60    1.40
   5  -9   0    3.90    1.60
  -5   9   0    4.80    1.50
   6   9   0   28.60    3.60
   6   9   0   31.50    4.10
  -6   9   0   25.90    3.20
   6  -9   0   24.60    3.50
   6  -9   0   27.40    3.20
  -6  -9   0   25.90    3.80
  -7  -9   0   13.00    2.90
  -7   9   0   12.80    2.50
   7  -9   0   11.90    2.60
   7   9   0   14.00    2.80
   7  -9   0   14.50    2.70
   7   9   0   10.80    2.90
   8  -9   0    2.40    1.70
   8  -9   0    0.30    1.90
   8   9   0    0.10    1.50
  -8  -9   0   -0.90    1.80
  -8   9   0    1.50    1.70
   8   9   0    0.00    2.30
   9   9   0   -3.80    2.60
  -9  -9   0   -1.10    1.60
   9  -9   0    1.20    1.80
   9   9   0   -0.10    1.90
  -9   9   0   -1.60    1.50
   0  10   0   52.39    3.30
   0 -10   0   60.59    4.30
   0  10   0   60.49    4.20
   0  10   0   53.69    4.20
   0 -10   0   53.59    4.10
  -1  10   0    0.30    1.10
  -1 -10   0    0.60    1.20
  -1  10   0    1.20    0.70
  -1 -10   0    0.00    1.10
   1  10   0    1.60    1.10
   1  10   0    0.90    1.10
   1 -10   0    1.50    1.20
   1  10   0    0.10    0.70
  -1  10   0    2.50    1.20
   2  10   0   57.19    3.90
   2  10   0   63.59    4.60
  -2 -10   0   61.09    4.50
  -2 -10   0   56.59    4.60
   2 -10   0   60.39    4.70
   2 -10   0   60.19    4.40
   2  10   0   57.19    4.80
   3 -10   0   15.30    2.40
   3  10   0   15.00    2.10
   3  10   0   12.90    2.30
   3 -10   0   15.10    2.60
  -3 -10   0   16.80    2.90
   4 -10   0   25.50    3.50
   4  10   0   20.60    2.90
   4 -10   0   21.90    3.00
  -4  10   0   20.90    2.70
  -4 -10   0   23.20    3.40
   4  10   0   22.40    2.90
   5  10   0   15.60    2.90
  -5 -10   0   18.30    3.40
   5  10   0   22.60    3.30
   5 -10   0   22.30    3.00
   5 -10   0   25.20    3.60
  -5  10   0   17.90    2.60
  -6  10   0   17.30    2.70
   6 -10   0   22.50    3.10
  -6 -10   0   15.80    3.20
   6  10   0   20.70    3.60
   6  10   0   18.30    3.10
   6 -10   0   25.20    3.70
  -7 -10   0    4.50    2.10
   7 -10   0    4.90    2.20
   7  10   0    5.00    2.10
  -7  10   0    3.70    1.80
   7 -10   0    1.40    1.50
   7  10   0    6.90    2.80
   8  10   0   29.90    4.90
  -8 -10   0   28.20    4.50
  -8  10   0   32.40    4.30
   8  10   0   39.10    4.90
   8 -10   0   32.40    4.60
   0  11   0   -0.80    1.00
   0  11   0    0.60    0.80
   0 -11   0   -1.50    1.20
   0  11   0    2.80    1.40
   0 -11   0    0.70    1.30
   1  11   0    3.90    1.40
  -1  11   0    2.50    1.40
   1  11   0    0.90    1.40
   1 -11   0    3.80    1.70
   1  11   0    3.60    1.20
  -1  11   0    1.50    0.90
  -1 -11   0    3.80    1.80
  -1  11   0    5.10    1.80
  -1 -11   0    1.70    1.50
  -2 -11   0    4.00    1.60
  -2 -11   0    6.40    1.90
  -2  11   0    6.40    1.30
  -2  11   0    6.50    1.70
   2 -11   0    4.50    1.70
   2  11   0    4.90    1.40
  -2  11   0    6.70    1.90
   3 -11   0   -1.80    1.00
   3  11   0    0.10    0.90
   3 -11   0   -0.10    1.30
   3  11   0   -1.50    0.90
  -3 -11   0    0.30    1.60
   4  11   0    1.80    1.50
   4 -11   0    1.50    1.40
  -4 -11   0    1.30    1.80
   4  11   0    1.30    1.30
   4 -11   0    3.20    1.70
   5 -11   0   32.80    4.30
   5  11   0   28.80    3.80
   5  11   0   23.20    3.50
  -5 -11   0   30.80    4.50
   5 -11   0   32.70    3.90
   6  11   0    5.10    2.50
   6  11   0    2.60    1.60
  -6 -11   0    2.00    2.30
   6 -11   0    5.70    2.40
   6 -11   0    4.40    2.00
  -7  11   0    8.60    2.80
   7  11   0    7.80    2.70
   7 -11   0    5.50    2.20
   7  11   0    6.90    3.30
  -7 -11   0    4.00    2.30
   0  12   0  161.48    8.20
   0 -12   0  162.98    9.40
   0  12   0  159.38    9.40
   0  12   0  164.08    9.30
  -1  12   0   15.90    2.10
  -1  12   0   14.20    2.70
   1 -12   0   15.50    2.80
  -1  12   0   13.50    2.90
   1  12   0   16.50    2.20
  -1 -12   0   17.70    3.00
  -1 -12   0   16.40    2.80
  -2 -12   0   41.40    4.50
  -2  12   0   55.29    4.60
   2 -12   0   49.99    5.00
  -2  12   0   57.89    4.90
  -2 -12   0   48.20    5.10
   2  12   0   48.30    3.80
  -2  12   0   45.90    3.50
  -3  12   0    0.00    1.20
   3 -12   0    1.10    1.60
   3  12   0   -0.30    1.30
  -3 -12   0   -0.20    1.70
   3  12   0   -0.10    1.20
  -3  12   0    1.80    1.70
  -3  12   0   -0.20    1.10
   4 -12   0   41.00    4.50
  -4 -12   0   40.70    5.10
   4  12   0   48.30    4.80
   4 -12   0   44.40    5.20
   4  12   0   52.59    5.40
   5  12   0   -1.90    1.70
   5 -12   0    1.40    1.70
   5 -12   0   -1.20    1.40
   5  12   0    0.00    1.40
  -5 -12   0    1.80    2.00
   6  12   0   68.09    5.80
  -6 -12   0   75.49    7.70
   6 -12   0   78.29    7.60
   6  12   0   81.99    7.50
   6 -12   0   66.79    6.40
   0  13   0   -1.20    1.70
   0  13   0    1.00    1.10
   0 -13   0    1.10    1.50
   0  13   0   -0.40    1.70
   1  13   0    0.10    1.20
  -1  13   0    0.00    1.70
   1 -13   0   -0.80    1.50
  -1  13   0   -0.80    0.90
  -1  13   0    1.70    1.60
  -1 -13   0    1.00    1.40
  -2 -13   0   11.40    3.00
  -2  13   0    8.60    2.50
  -2 -13   0    8.10    2.40
  -2  13   0   10.40    2.70
   2 -13   0    6.00    2.20
   2  13   0   10.30    2.00
  -2  13   0    5.10    1.70
   3  13   0   -0.70    1.30
   3 -13   0    0.40    1.70
  -3  13   0    2.70    1.60
  -3  13   0    0.30    1.80
   3  13   0   -0.80    1.30
  -3 -13   0    0.60    1.90
  -3  13   0   -0.10    1.20
   4  13   0   10.20    2.40
  -4  13   0    5.50    2.00
   4  13   0    7.80    2.10
  -4 -13   0    8.70    2.90
   4 -13   0    5.90    2.30
  -4  13   0    7.20    2.30
  -4  13   0    6.10    2.50
  -5  13   0    7.30    2.20
  -5  13   0    2.20    1.90
   5  13   0    4.20    1.90
   5  13   0    2.90    2.40
  -5 -13   0    0.70    2.40
  -5  13   0    4.40    2.30
   5 -13   0    3.10    2.30
   0  14   0  111.09    6.40
   0 -14   0  103.19    7.50
   1 -14   0   18.50    3.50
  -1  14   0   14.90    2.40
  -1  14   0   10.60    3.00
   1  14   0   14.10    2.30
  -1 -14   0   14.90    3.40
  -1  14   0   19.00    3.60
   2  14   0   53.59    4.30
  -2 -14   0   48.00    5.60
   2 -14   0   44.80    5.20
  -2  14   0   55.39    5.70
   2  14   0   67.09    6.50
  -2 -14   0   56.09    7.70
  -2  14   0   45.80    3.90
  -2  14   0   52.49    5.90
  -3  14   0    8.00    2.10
  -3  14   0    5.80    2.50
  -3  14   0    7.90    2.70
   3  14   0    5.20    2.10
   3  14   0    9.30    2.30
   3 -14   0    7.40    2.50
  -3 -14   0    9.80    3.30
  -4  14   0    3.20    2.50
   4 -14   0   -0.80    2.30
   4  14   0    4.60    2.20
   4  14   0    5.30    2.40
  -4  14   0    4.10    2.00
  -4 -14   0    2.10    3.00
  -4  14   0    5.40    2.70
  -2   0  -1  330.57   14.30
  -2   0   1  338.37   14.30
   2   0  -1  325.77   14.20
   2   0   1  324.97   14.30
   2   0  -1  338.07   14.30
   3   0  -1    0.80    0.40
  -3   0  -1   -0.50    0.30
   3   0   1   -0.80    0.70
   3   0   1    0.20    0.40
  -3   0   1    0.60    0.40
   3   0  -1    1.30    0.90
  -3   0   1    0.50    0.40
  -3   0  -1    0.50    0.40
   3   0   1    0.10    0.40
   3   0  -1    0.10    0.40
  -4   0   1   93.29    4.70
  -4   0  -1  101.49    4.80
  -4   0   1   91.79    4.80
  -4   0  -1   91.99    5.00
   4   0   1   96.19    4.90
   4   0   1   93.29    4.70
   4   0  -1   98.69    4.90
   4   0  -1  100.89    5.50
   4   0  -1   96.19    4.90
   4   0   1   98.99    5.40
   5   0   1    1.10    0.60
   5   0  -1    0.20    0.50
  -5   0   1   -0.30    0.50
  -5   0   1    0.30    0.60
   5   0  -1    0.40    1.10
   5   0  -1   -0.80    0.50
  -5   0  -1   -0.40    0.60
  -5   0  -1    0.20    0.50
   5   0   1   -0.10    0.60
   5   0   1    0.50    0.90
   6   0  -1  257.57   11.70
   6   0  -1  241.18   11.70
  -6   0  -1  246.38   11.50
   6   0   1  243.08   11.70
  -6   0   1  248.68   11.70
  -6   0  -1  243.48   11.80
   6   0   1  232.68   13.40
   6   0   1  241.18   11.30
  -6   0   1  251.47   11.40
   7   0  -1   -1.50    0.80
  -7   0   1    1.10    0.90
   7   0  -1   -0.40    0.70
   7   0   1   -0.10    0.90
  -7   0  -1   -0.30    0.90
   7   0   1    0.40    0.90
   8   0   1   79.49    5.40
   8   0  -1   76.59    5.10
  -8   0   1   88.69    5.60
  -8   0  -1   77.19    5.30
  -9   0   1   -0.70    1.30
  -9   0  -1   -1.00    1.20
   9   0   1   -0.70    1.00
   9   0  -1   -0.20    1.20
 -10   0  -1   33.40    4.30
  10   0   1   43.10    4.90
 -10   0   1   43.20    4.60
  10   0  -1   38.60    4.40
  11   0  -1   -0.40    1.60
 -11   0  -1    1.00    2.00
 -11   0   1   -0.50    1.80
  11   0   1    0.70    1.70
  -2  -1  -1 1271.57   52.89
   2   1  -1 1228.58   53.09
  -2  -1  -1 1275.37   52.99
   2  -1   1 1195.28   51.89
   2  -1   1 1220.78   51.89
   2   1  -1 1221.08   52.89
   2   1  -1 1270.47   52.79
  -2   1   1 1230.58   51.89
   2   1   1 1200.78   52.09
   2   1   1 1203.48   51.89
  -2  -1   1 1299.37   51.99
   2  -1  -1 1303.97   52.99
  -2   1  -1 1245.48   52.89
   2  -1  -1 1253.47   52.79
  -2  -1   1 1286.67   51.79
   3   1  -1  833.62   33.80
  -3   1   1  823.22   34.10
   3   1  -1  808.22   33.90
  -3  -1  -1  773.02   33.90
   3  -1   1  840.92   34.40
  -3  -1  -1  770.62   33.90
  -3   1   1  788.02   34.40
   3  -1   1  803.72   34.40
   3   1  -1  772.42   34.20
   3  -1  -1  815.92   34.00
  -3  -1   1  775.02   34.20
   3   1   1  792.12   34.40
   3   1   1  830.92   34.10
  -3  -1   1  831.42   34.40
   3  -1  -1  805.52   33.90
  -3   1  -1  799.02   34.00
   3   1   1  780.92   34.60
   4  -1   1  247.38   10.90
  -4  -1  -1  240.48   10.90
   4   1  -1  240.18   11.40
   4   1  -1  238.18   10.90
  -4  -1  -1  228.48   10.80
  -4   1   1  246.18   10.60
   4   1  -1  239.98   10.70
  -4   1   1  238.48   11.00
   4  -1   1  237.78   11.00
   4  -1   1  223.68   11.50
  -4  -1   1  229.68   10.90
   4  -1  -1  240.98   10.90
   4  -1  -1  235.78   10.80
  -4   1  -1  235.58   11.00
   4   1   1  246.38   11.50
   4   1   1  237.88   11.00
  -4   1  -1  246.68   10.50
  -4  -1   1  234.98   10.90
   4   1   1  253.27   10.70
  -5   1   1  125.49    5.90
   5  -1   1  121.79    6.10
  -5  -1  -1  116.79    6.10
   5  -1   1  121.89    6.30
  -5   1   1  126.09    6.30
   5   1  -1  120.39    6.00
   5   1  -1  124.69    6.20
   5  -1   1  135.59    7.00
   5   1  -1  116.49    6.70
  -5  -1  -1  125.69    6.20
   5   1   1  122.29    5.90
   5  -1  -1  119.09    6.10
  -5  -1   1  122.89    6.20
   5   1   1  122.09    6.30
   5   1   1  114.19    6.70
   5  -1  -1  124.09    6.20
   5  -1  -1  118.89    6.90
  -5   1  -1  122.59    5.80
  -5   1  -1  117.09    6.30
  -5  -1   1  106.29    6.00
  -6  -1  -1   68.29    4.10
  -6   1   1   74.19    4.40
   6  -1   1   65.89    4.10
   6   1  -1   76.99    5.20
   6   1  -1   64.49    4.20
  -6  -1  -1   63.99    4.10
   6  -1   1   66.29    4.30
   6   1  -1   72.99    4.10
   6   1   1   64.99    4.20
   6  -1  -1   67.59    4.20
   6  -1  -1   69.29    4.20
   6   1   1   67.59    3.90
   6   1   1   74.29    5.00
  -6   1  -1   69.09    4.40
  -6  -1   1   73.59    4.30
  -6  -1   1   68.69    4.20
   7   1  -1   22.30    2.60
  -7  -1  -1   21.80    2.50
  -7  -1  -1   20.40    2.50
   7  -1   1   17.30    2.40
  -7   1   1   17.30    2.50
   7   1  -1   23.50    2.50
   7  -1   1   19.70    2.30
   7  -1  -1   21.00    2.50
   7   1   1   21.30    2.60
  -7   1  -1   21.50    2.70
  -7  -1   1   22.20    2.50
   7  -1  -1   21.10    2.50
  -7  -1   1   19.70    2.40
  -8   1   1    3.30    1.50
   8   1  -1    4.50    1.60
   8  -1   1    3.90    1.50
  -8  -1  -1    6.60    1.80
   8  -1  -1    3.20    1.40
   8  -1  -1    1.10    1.20
   8   1   1    5.80    1.70
  -8   1  -1    4.20    1.50
  -8  -1   1    3.70    1.50
   9   1  -1   26.90    3.40
  -9   1   1   28.40    3.70
   9  -1   1   29.70    3.60
  -9  -1  -1   26.50    3.40
   9  -1  -1   33.50    3.80
  -9   1  -1   27.40    3.60
   9   1   1   22.40    3.10
  -9  -1   1   22.90    3.10
  10   1  -1   17.60    3.10
  10  -1   1   12.30    2.60
 -10  -1  -1   16.60    3.10
 -10   1   1   14.60    3.00
 -10   1  -1   15.00    3.00
  10   1   1    8.60    2.30
  10  -1  -1   19.40    3.10
 -10  -1   1   17.10    3.00
 -11  -1  -1    1.90    2.00
 -11   1   1    0.90    2.10
  11   1  -1    1.10    1.80
  11  -1   1    5.10    2.40
 -11   1  -1    2.80    2.30
  11  -1  -1    3.90    2.30
 -11  -1   1    2.10    2.20
  11   1   1    4.60    2.30
   0  -2   1    0.10    0.30
   0   2  -1    0.70    0.40
   0   2  -1    0.60    0.40
   0   2  -1    0.10    0.20
   1   2  -1  750.92   30.80
   1   2  -1  705.63   30.80
   1  -2   1  699.03   29.30
  -1  -2  -1  778.72   31.00
   1   2  -1  698.63   30.90
   1  -2   1  734.03   29.30
   1   2   1  688.63   29.10
  -1  -2   1  680.43   29.20
   1   2   1  663.73   29.20
   1  -2  -1  717.83   30.80
   1  -2  -1  710.53   30.70
   1  -2  -1  746.83   30.90
  -1   2  -1  719.53   30.70
  -1  -2   1  682.43   29.30
   2   2  -1 1989.30   84.59
   2   2  -1 1981.00   84.69
   2  -2   1 1948.21   84.89
  -2  -2  -1 2138.99   84.89
   2  -2   1 2141.69   84.99
  -2   2   1 2026.00   84.89
  -2  -2  -1 2091.19   84.59
   2   2  -1 1959.10   84.79
  -2  -2   1 2003.70   84.69
  -2   2  -1 1961.10   84.69
  -2  -2   1 2047.70   85.09
   2   2   1 1971.30   84.89
   2   2   1 2032.90   84.99
   2  -2  -1 2185.58   84.89
   2  -2  -1 1855.71   84.59
   3   2  -1  239.58   10.50
   3   2  -1  231.58   10.60
  -3  -2  -1  237.88   10.60
  -3  -2  -1  252.07   10.90
   3   2  -1  234.28   10.90
   3  -2   1  236.68   10.60
   3  -2   1  235.88   10.50
  -3   2   1  225.08   10.50
  -3   2  -1  236.38   10.70
  -3  -2   1  225.88   10.30
  -3  -2   1  243.58   10.70
   3   2   1  236.48   10.10
   3   2   1  224.48   10.50
   3  -2  -1  231.78   10.50
   3   2   1  232.88   10.80
   3  -2  -1  229.18   10.70
  -4  -2  -1   25.40    1.90
   4   2  -1   22.30    2.50
   4   2  -1   28.20    2.00
   4  -2   1   26.60    2.10
   4   2  -1   26.90    1.80
  -4   2   1   29.10    1.70
  -4   2   1   38.00    2.40
  -4  -2  -1   24.00    2.00
   4  -2   1   26.30    2.00
  -4   2  -1   24.60    2.00
  -4  -2   1   30.00    2.20
   4   2   1   28.10    1.80
   4   2   1   25.00    2.10
   4  -2  -1   25.70    2.10
   4   2   1   30.20    2.50
  -4  -2   1   29.60    2.00
   4  -2  -1   28.40    1.90
  -5  -2  -1  114.59    6.10
  -5   2   1  119.79    5.50
   5  -2   1  115.99    6.10
   5  -2   1  115.69    6.10
  -5   2   1  112.09    6.10
   5   2  -1  117.89    6.60
  -5  -2  -1  111.49    5.90
   5   2  -1  115.69    5.70
   5   2  -1  119.79    6.00
   5   2   1  115.29    6.10
   5   2   1  114.89    6.60
  -5   2  -1  110.59    6.00
   5  -2  -1  111.39    6.00
  -5  -2   1  116.79    6.00
   5   2   1  125.79    5.70
  -5  -2   1  111.59    6.10
   5  -2  -1  113.69    5.90
   6   2  -1   45.50    4.30
   6  -2   1   42.20    3.00
  -6  -2  -1   36.30    2.90
  -6  -2  -1   42.40    3.10
  -6   2   1   45.70    3.30
   6   2  -1   35.10    3.00
   6  -2   1   35.00    3.00
   6   2  -1   39.80    2.70
   6   2   1   43.10    4.30
  -6  -2   1   39.70    2.90
   6  -2  -1   43.30    3.10
  -6   2  -1   49.00    3.40
   6  -2  -1   39.60    3.00
   6   2   1   44.40    3.20
  -6  -2   1   43.40    3.20
  -7   2   1   44.70    3.60
   7  -2   1   53.49    3.70
   7   2  -1   57.59    3.90
  -7  -2  -1   51.59    3.80
  -7  -2  -1   50.69    3.70
   7  -2   1   43.40    3.50
   7  -2  -1   54.59    3.80
   7   2   1   55.99    5.20
  -7   2  -1   44.90    3.70
   7  -2  -1   52.39    3.80
  -7  -2   1   47.20    3.50
  -7  -2   1   47.20    3.60
   7   2   1   47.20    3.70
   8  -2   1  124.09    7.20
   8   2  -1  122.79    7.30
  -8  -2  -1  121.79    7.20
   8  -2   1  127.49    7.10
  -8   2   1  134.79    7.60
   8  -2  -1  129.39    7.30
  -8   2  -1  129.19    7.50
   8   2   1  124.39    7.40
   8  -2  -1  132.89    7.30
  -8  -2   1  121.39    7.10
  -9   2   1    6.30    2.00
  -9  -2  -1    6.50    1.90
   9  -2   1    3.70    1.60
   9   2  -1    2.00    1.60
   9  -2  -1    6.70    1.90
  -9  -2   1    1.10    1.50
  -9   2  -1    2.20    1.60
   9   2   1    3.90    1.70
  10  -2   1   12.00    2.70
 -10   2   1   14.00    2.90
  10   2  -1   13.90    2.90
 -10  -2  -1   17.40    3.10
  10   2   1   12.20    2.70
  10  -2  -1   13.30    2.70
 -10  -2   1   15.80    2.90
 -10   2  -1   14.50    3.00
  11   2  -1   35.40    4.50
 -11  -2  -1   30.40    4.30
 -11   2   1   38.00    5.20
  11  -2   1   33.70    4.40
  11  -2  -1   35.20    5.20
 -11   2  -1   28.80    4.40
  11   2   1   33.90    4.60
 -11  -2   1   32.20    4.40
   0  -3   1  453.55   19.70
   0  -3  -1  455.35   20.80
   0   3  -1  425.36   20.60
   0   3  -1  523.75   20.90
   0  -3  -1  506.85   21.00
   0   3  -1  520.15   21.00
   0  -3  -1  491.05   20.90
   0  -3  -1  501.25   20.80
   0  -3   1  463.45   19.70
   1  -3   1 1223.98   50.39
  -1  -3  -1 1176.48   49.40
  -1  -3  -1 1120.99   49.60
   1   3  -1 1157.18   49.40
   1  -3   1 1242.08   50.49
   1   3  -1 1260.27   49.40
   1   3  -1 1105.09   49.30
  -1  -3  -1 1221.78   49.30
  -1  -3   1 1177.68   50.39
   1   3   1 1161.18   49.99
  -1  -3   1 1253.57   50.49
   1   3   1 1094.29   50.09
   1  -3  -1 1143.39   49.50
   1   3   1 1212.28   50.19
  -1   3  -1 1167.98   49.30
   1  -3  -1 1258.07   49.40
   1  -3  -1 1166.18   49.40
   1  -3  -1 1122.19   49.40
   2   3  -1  332.57   14.80
   2   3  -1  335.37   14.90
   2  -3   1  329.87   14.90
   2   3  -1  330.57   15.00
   2  -3   1  359.26   15.10
  -2  -3  -1  350.26   15.20
  -2   3   1  336.17   14.90
  -2  -3  -1  345.67   14.70
   2   3   1  347.07   14.60
  -2  -3   1  357.16   15.10
  -2   3  -1  325.77   14.80
  -2  -3   1  323.57   14.50
   2   3   1  338.27   14.90
   2  -3  -1  349.77   14.80
   2  -3  -1  353.46   15.10
   2   3   1  330.47   14.80
   3  -3   1  186.78    8.80
   3   3  -1  195.08    8.50
   3   3  -1  183.18    8.90
   3   3  -1  189.58    8.70
  -3  -3  -1  199.58    8.50
  -3  -3  -1  178.78    8.80
   3  -3   1  192.58    8.70
  -3   3   1  186.58    8.70
  -3   3  -1  173.48    8.60
  -3  -3   1  171.58    8.80
   3   3   1  189.38    8.90
   3   3   1  200.68    8.30
   3  -3  -1  186.58    8.60
   3  -3  -1  183.08    8.80
  -3  -3   1  184.28    8.40
   3   3   1  182.68    8.70
  -4  -3  -1  113.59    5.40
  -4  -3  -1  100.69    5.70
  -4   3   1  100.79    5.30
   4   3  -1  102.09    5.90
   4  -3   1   99.39    5.30
   4  -3   1  103.69    5.30
   4   3  -1  103.79    5.50
   4   3  -1  114.59    5.30
   4   3   1   94.09    5.50
  -4  -3   1   97.99    5.40
  -4  -3   1   94.39    4.90
  -4   3  -1  102.59    5.50
   4   3   1  108.39    4.80
   4  -3  -1  109.89    5.50
   4   3   1  102.49    5.30
   4  -3  -1  109.09    5.70
  -5  -3  -1   37.70    2.80
   5  -3   1   32.70    2.50
   5   3  -1   30.00    2.50
  -5   3   1   30.50    2.50
   5   3  -1   35.20    2.30
   5  -3   1   29.20    2.50
  -5  -3  -1   34.70    2.50
   5   3  -1   38.20    3.60
   5   3   1   32.60    2.10
  -5  -3   1   29.40    2.20
   5  -3  -1   32.80    2.60
  -5   3  -1   34.00    2.70
   5  -3  -1   37.20    2.60
   5   3   1   33.70    2.60
   5   3   1   29.60    3.10
  -5  -3   1   30.90    2.60
   6   3  -1   28.50    2.90
   6  -3   1   29.40    2.90
   6   3  -1   26.90    3.30
   6  -3   1   24.20    2.70
  -6  -3  -1   25.30    2.50
  -6  -3  -1   24.00    2.70
  -6   3   1   27.70    2.90
  -6  -3   1   28.50    2.40
   6  -3  -1   30.40    3.00
   6  -3  -1   26.60    2.60
   6   3   1   25.80    3.20
  -6  -3   1   25.40    2.80
   6   3   1   24.70    2.60
  -6   3  -1   22.30    2.60
  -7  -3  -1   67.99    4.80
  -7   3   1   68.79    4.80
  -7  -3  -1   76.89    4.70
   7   3  -1   71.99    4.70
   7  -3   1   74.69    4.80
   7  -3   1   63.69    4.50
   7   3  -1   76.69    5.60
  -7  -3   1   74.49    4.90
   7  -3  -1   73.39    4.60
   7   3   1   80.49    5.80
  -7  -3   1   72.09    4.50
   7   3   1   74.59    4.90
   7  -3  -1   70.99    4.70
  -7   3  -1   69.39    4.80
  -8   3   1   11.20    2.20
   8  -3   1   10.10    2.00
  -8  -3  -1    4.80    1.70
  -8  -3  -1    6.10    1.70
   8  -3   1    6.70    1.60
   8   3  -1    7.70    1.90
   8  -3  -1    6.10    1.70
   8   3   1    6.70    1.80
  -8  -3   1    6.70    1.80
  -8  -3   1    7.40    1.80
   8  -3  -1    8.90    1.90
  -8   3  -1    8.20    2.10
  -9  -3  -1    3.00    1.50
   9   3  -1    2.10    1.50
  -9   3   1    2.90    1.60
   9  -3   1    3.60    1.70
   9  -3  -1    2.00    1.40
  -9  -3   1    2.00    1.50
  -9   3  -1    2.60    1.60
   9   3   1    3.70    1.80
   9  -3  -1    4.10    1.80
  10   3  -1   18.80    3.30
  10  -3   1   20.30    3.30
 -10  -3  -1   18.70    3.10
 -10   3   1   17.80    3.30
 -10   3  -1   16.90    3.30
  10   3   1   20.80    3.50
 -10  -3   1   15.80    3.10
  10  -3  -1   22.30    3.40
  11   3  -1    2.40    2.20
  11  -3   1    2.00    2.10
 -11  -3  -1    0.10    2.30
 -11   3   1    3.60    2.30
  11   3   1    5.00    2.40
 -11   3  -1    4.00    2.70
   0   4  -1    0.60    0.40
   0   4  -1    0.00    0.20
   0  -4   1    0.50    0.40
   0  -4  -1    0.50    0.50
   0  -4  -1    0.50    0.40
   0  -4  -1   -0.10    0.40
   0  -4   1    0.20    0.40
   0   4  -1   -0.20    0.40
   0  -4   1   -0.10    0.40
   0  -4  -1   -0.10    0.30
   1  -4   1  141.29    5.90
   1   4  -1  118.29    5.80
   1   4  -1  114.29    5.80
  -1  -4  -1  130.29    5.70
   1  -4   1  124.39    6.10
  -1  -4  -1  121.09    5.90
   1   4  -1  123.69    5.70
   1  -4   1  129.99    6.20
  -1  -4  -1  110.69    6.00
   1   4   1  132.19    5.90
  -1  -4   1  115.59    6.10
   1  -4  -1  124.99    5.90
   1  -4  -1  118.99    5.80
   1  -4  -1  131.59    6.00
   1  -4  -1  120.29    5.80
  -1   4  -1  126.09    5.60
   1   4   1  123.59    5.60
  -1   4  -1  132.59    5.70
  -1  -4   1  119.79    6.00
   1   4   1  118.49    5.80
   2  -4   1  186.78    9.10
  -2  -4  -1  193.58    8.70
   2   4  -1  188.58    8.90
  -2   4   1  196.38    8.90
  -2   4   1  199.28    8.70
   2   4  -1  194.68    8.80
   2   4  -1  209.28    8.90
  -2  -4  -1  181.38    9.20
  -2  -4   1  191.48    9.00
   2  -4  -1  191.28    9.10
   2   4   1  188.88    9.00
  -2   4  -1  197.08    8.90
   2   4   1  197.68    8.70
   2  -4  -1  186.78    8.60
   2   4   1  185.18    8.70
  -2  -4   1  210.68    8.60
   2  -4  -1  206.88    9.00
   2   4   1  182.68    8.80
  -2  -4   1  203.48    9.30
  -3  -4  -1 1003.20   41.80
   3  -4   1  967.90   42.60
   3   4  -1  992.70   41.80
   3   4  -1 1001.60   42.20
  -3   4   1  975.90   42.60
   3  -4   1  974.40   42.80
   3   4  -1  979.20   42.10
  -3  -4  -1  887.61   42.20
  -3   4  -1  992.50   42.00
   3   4   1 1023.50   42.70
   3   4   1 1016.20   42.80
  -3  -4   1  909.11   42.80
  -3  -4   1 1065.99   42.30
   3  -4  -1 1011.60   42.20
   3  -4  -1 1003.10   41.90
   3   4   1 1054.59   42.20
   4   4  -1  161.88    7.20
  -4   4   1  145.49    7.40
  -4  -4  -1  152.28    7.80
  -4  -4  -1  148.09    7.20
   4   4  -1  156.98    7.60
   4  -4   1  150.68    7.40
   4   4  -1  147.19    7.80
  -4  -4   1  158.88    7.10
   4   4   1  151.68    7.50
   4   4   1  149.09    7.70
   4   4   1  157.28    6.90
   4  -4  -1  139.99    7.60
   4  -4  -1  153.08    7.40
  -4  -4   1  129.79    7.50
  -4   4  -1  152.38    7.50
  -5  -4  -1   85.89    5.10
  -5  -4  -1   84.89    4.60
   5   4  -1   79.89    4.40
   5   4  -1   81.39    5.30
   5  -4   1   81.39    4.80
   5   4  -1   84.99    4.80
   5  -4   1   85.49    4.70
  -5   4   1   74.49    4.60
   5  -4  -1   79.79    4.60
  -5  -4   1   80.99    4.30
  -5   4  -1   76.89    4.80
   5   4   1   78.29    4.70
  -5  -4   1   73.19    4.80
   5   4   1   71.79    5.00
   5  -4  -1   84.29    5.00
   6  -4   1   69.49    4.60
   6   4  -1   67.19    4.50
   6   4  -1   83.59    5.50
  -6  -4  -1   78.69    5.00
  -6  -4  -1   70.59    4.40
   6  -4   1   72.19    4.60
  -6   4   1   70.19    4.60
   6  -4  -1   77.59    4.60
   6   4   1   67.99    5.10
  -6   4  -1   73.19    4.70
   6   4   1   78.09    4.80
   6  -4  -1   63.99    4.60
  -6  -4   1   75.09    4.90
  -6  -4   1   76.39    4.30
   7   4  -1   12.80    2.80
   7   4  -1    4.50    1.40
  -7   4   1    6.90    1.70
  -7  -4  -1    9.30    1.70
   7  -4   1    5.20    1.40
   7  -4   1    3.90    1.40
  -7  -4  -1    5.40    1.60
   7  -4  -1    5.70    1.60
  -7  -4   1    6.60    1.50
  -7   4  -1    7.40    1.80
   7   4   1    7.30    1.90
   7   4   1   11.60    2.70
   7  -4  -1    7.80    1.70
  -7  -4   1    7.30    1.70
  -8   4   1   88.19    5.80
   8   4  -1   83.89    5.60
  -8  -4  -1   86.09    5.30
  -8  -4  -1   74.49    5.60
   8  -4   1   79.29    5.50
   8  -4   1   85.39    5.50
   8   4   1   85.39    8.40
   8  -4  -1   77.49    5.20
  -8  -4   1   85.59    5.40
  -8   4  -1   91.29    5.80
   8   4   1   80.29    5.50
  -8  -4   1   78.99    5.60
   8  -4  -1   72.29    5.30
   9   4  -1   13.80    2.80
  -9  -4  -1   11.00    2.50
   9  -4   1   17.30    2.90
  -9   4   1   14.80    2.80
   9  -4   1   15.20    2.70
   9   4   1   16.60    2.90
  -9   4  -1   12.70    2.50
  -9  -4   1   17.00    3.00
   9  -4  -1   14.80    2.50
   9  -4  -1   16.50    2.70
 -10   4   1    1.70    2.00
  10   4  -1   -0.70    1.60
  10  -4   1   -1.30    1.40
  10  -4  -1    0.30    2.00
 -10   4  -1    2.20    1.80
  10   4   1    2.40    1.80
  11   4  -1   18.90    3.80
  11  -4   1   21.00    3.80
 -11   4   1   22.00    4.30
  11   4   1   17.80    3.70
 -11   4  -1   18.80    3.90
   0   5  -1    1.90    0.40
   0  -5   1    3.40    0.80
   0  -5   1    2.10    0.70
   0  -5   1    2.80    0.60
   0   5  -1    2.10    0.70
   0  -5  -1    0.90    0.50
   0  -5  -1    2.60    0.60
   0  -5  -1    1.50    0.60
   0  -5  -1    1.80    0.70
   0   5  -1    0.90    0.60
  -1  -5  -1   29.90    1.90
   1  -5   1   29.10    2.20
   1   5  -1   28.50    1.90
  -1  -5  -1   33.10    2.20
   1   5  -1   26.80    2.00
   1  -5   1   30.90    2.00
   1   5  -1   32.00    2.10
   1  -5   1   31.60    2.20
  -1  -5  -1   30.50    2.30
   1  -5  -1   30.50    2.00
  -1  -5   1   29.70    2.20
  -1   5  -1   29.20    1.70
  -1   5  -1   29.10    1.90
   1  -5  -1   27.70    2.00
   1   5   1   29.30    1.70
   1   5   1   29.60    2.00
  -1  -5   1   33.50    2.30
   1  -5  -1   31.30    2.00
   1   5   1   31.90    2.10
   1  -5  -1   27.10    2.20
  -1  -5   1   29.70    1.70
   2   5  -1  280.97   13.00
  -2  -5  -1  292.17   13.20
  -2  -5  -1  307.97   12.90
   2   5  -1  298.77   13.10
   2  -5   1  321.77   13.30
  -2   5   1  275.57   13.60
   2  -5   1  290.07   13.80
   2   5  -1  277.57   13.10
  -2  -5  -1  279.37   13.40
   2  -5   1  283.37   13.90
  -2   5   1  321.07   13.30
  -2  -5   1  324.67   14.20
  -2   5  -1  297.87   13.00
   2   5   1  307.57   13.40
   2  -5  -1  309.57   12.80
  -2  -5   1  299.97   13.80
  -2   5  -1  301.57   13.00
  -2  -5   1  327.57   13.30
   2   5   1  307.77   13.50
   2  -5  -1  292.87   13.10
   2  -5  -1  258.97   13.20
   2   5   1  292.27   13.50
  -3   5   1  187.68    9.10
  -3   5   1  178.48    8.70
   3  -5   1  174.58    8.90
   3   5  -1  169.48    8.50
  -3   5   1  184.68    8.10
   3   5  -1  183.98    8.30
  -3  -5  -1  163.68    8.70
   3  -5   1  173.28    8.70
   3   5  -1  181.38    8.60
   3  -5  -1  178.28    8.40
   3   5   1  171.58    8.70
   3   5   1  172.28    8.80
   3  -5  -1  184.08    8.80
  -3   5  -1  167.28    8.40
  -3  -5   1  193.18    8.30
  -3  -5   1  180.58    9.10
   3   5   1  198.28    8.40
  -4   5   1  164.98    8.20
   4   5  -1  170.98    8.50
   4   5  -1  183.38    7.90
   4  -5   1  161.68    8.40
  -4  -5  -1  167.98    7.80
   4  -5   1  160.98    8.20
   4   5  -1  151.28    8.10
  -4  -5  -1  147.69    8.30
   4   5   1  158.18    8.40
   4   5   1  165.78    8.30
  -4  -5   1  169.68    7.70
   4  -5  -1  154.38    8.30
  -4   5  -1  163.38    8.10
   4  -5  -1  162.58    8.00
  -4  -5   1  151.38    8.50
   4   5   1  178.88    7.80
   5  -5   1    9.70    1.60
   5   5  -1    5.60    1.70
  -5  -5  -1    6.70    1.50
   5   5  -1    7.10    1.50
  -5   5   1    7.20    1.50
   5  -5   1    7.60    1.70
  -5  -5  -1    9.10    1.40
   5   5   1    7.90    1.80
   5  -5  -1    8.50    1.50
  -5  -5   1    9.60    1.40
  -5  -5   1    6.50    1.50
   5  -5  -1    7.30    1.60
   5   5   1    7.40    1.50
  -5   5  -1    8.70    1.60
   6   5  -1   19.70    2.60
   6   5  -1   21.60    3.10
  -6  -5  -1   26.60    2.60
  -6   5   1   17.20    2.30
  -6  -5  -1   19.30    2.70
   6  -5   1   18.70    2.30
   6  -5   1   22.40    2.70
   6   5   1   16.80    2.70
  -6  -5   1   17.70    2.60
  -6   5  -1   23.00    2.70
  -6  -5   1   24.40    2.40
   6  -5  -1   24.80    2.90
   6   5   1   18.20    2.40
   6  -5  -1   21.30    2.50
   7  -5   1    2.20    1.30
   7   5  -1    3.00    1.20
   7   5  -1    1.50    1.60
   7  -5   1    3.50    1.20
  -7  -5  -1    1.30    1.20
  -7   5   1    2.10    1.20
  -7  -5  -1    3.60    1.30
   7  -5  -1    2.70    1.10
   7   5   1    3.10    1.40
  -7  -5   1    2.50    1.30
   7   5   1    3.90    1.80
   7  -5  -1    2.00    1.20
  -7   5  -1    1.00    1.20
   8   5  -1   -1.50    2.00
   8   5  -1    0.90    1.40
   8  -5   1   -0.90    1.00
  -8  -5  -1    1.90    1.30
  -8   5   1   -0.60    1.00
   8  -5   1    0.70    1.10
  -8  -5   1    1.10    1.30
   8   5   1   -1.10    1.60
   8  -5  -1    1.70    1.30
   8   5   1    0.90    1.30
   8  -5  -1   -0.20    1.10
  -8   5  -1   -0.30    1.00
  -9  -5  -1    0.80    1.60
   9   5  -1    1.20    1.70
   9  -5   1   -0.20    1.40
  -9   5   1    2.80    1.70
   9  -5   1    1.80    1.40
  -9  -5   1    1.40    1.60
  -9   5  -1   -0.80    1.30
   9  -5  -1    1.70    1.40
   9   5   1    2.60    1.70
   9  -5  -1   -0.10    1.50
 -10   5   1    2.80    1.90
  10   5  -1    2.90    2.10
  10  -5   1    6.20    2.10
 -10   5  -1    6.70    2.30
  10   5   1    4.50    2.20
  10  -5  -1    2.60    2.10
 -11   5   1    1.30    3.00
 -11   5  -1    2.70    2.50
   0  -6   1   -0.40    0.50
   0  -6   1   -0.30    0.40
   0  -6  -1   -0.60    0.50
   0   6  -1    0.20    0.30
   0   6  -1   -0.30    0.60
   0  -6  -1   -0.40    0.50
   0  -6  -1    0.60    0.50
   0  -6  -1    0.40    0.60
   0  -6   1   -0.50    0.50
   0   6  -1   -0.70    0.40
   1   6  -1  122.79    5.90
   1   6  -1  118.29    6.20
  -1  -6  -1  131.49    6.60
  -1  -6  -1  127.99    5.90
  -1  -6  -1  120.89    6.30
   1  -6   1  124.89    6.40
   1   6  -1  116.59    6.30
   1  -6   1  119.89    6.10
   1  -6   1  116.09    6.40
  -1   6  -1  117.29    5.90
  -1  -6   1  128.79    5.70
   1  -6  -1  133.59    6.10
   1   6   1  123.29    6.20
  -1  -6   1  122.19    6.40
  -1   6  -1  124.39    5.80
   1  -6  -1  128.79    6.30
  -1  -6   1  132.09    6.60
   1  -6  -1  131.39    6.50
   1   6   1  131.49    6.20
   1   6   1  122.79    5.70
   1  -6  -1  120.19    6.20
  -2   6   1   25.60    1.70
  -2  -6  -1   26.80    1.90
   2   6  -1   28.50    2.10
  -2   6   1   27.50    2.00
   2   6  -1   27.90    2.00
   2  -6   1   30.50    2.30
  -2  -6  -1   26.70    2.20
   2   6  -1   23.10    2.00
   2  -6   1   28.40    1.90
  -2  -6  -1   20.40    2.40
   2  -6   1   25.90    2.60
  -2  -6   1   23.40    2.30
   2   6   1   23.60    1.80
  -2   6  -1   27.00    1.90
   2  -6  -1   28.30    2.00
   2   6   1   25.20    1.90
   2  -6  -1   27.50    2.10
   2   6   1   24.10    1.90
  -2  -6   1   25.10    2.30
   2  -6  -1   26.80    2.30
  -2   6  -1   22.90    1.90
  -2  -6   1   28.10    1.70
   3   6  -1   96.09    5.50
   3   6  -1  101.59    5.30
   3  -6   1  110.29    5.80
  -3  -6  -1  106.69    5.10
  -3   6   1  103.19    5.60
   3  -6   1  102.19    6.00
   3   6  -1   92.59    5.40
   3   6   1  109.79    5.40
   3   6   1  100.59    5.80
  -3   6  -1   98.49    5.30
   3  -6  -1   99.69    5.60
   3   6   1  104.89    5.70
  -3  -6   1  104.99    6.10
   3  -6  -1   99.49    5.40
  -3  -6   1  114.49    5.20
  -4  -6  -1    2.10    0.90
  -4   6   1    6.60    1.40
   4  -6   1    3.60    1.10
  -4  -6  -1    4.30    1.40
   4   6  -1    4.70    1.10
   4   6  -1    3.80    1.10
   4  -6   1    3.70    1.20
   4   6  -1    7.30    1.60
   4  -6  -1    6.90    1.30
   4   6   1    4.20    1.30
  -4  -6   1    2.10    1.00
  -4   6  -1    6.40    1.30
   4  -6  -1    6.60    1.50
   4   6   1    4.00    1.30
   5  -6   1  179.28    9.50
  -5  -6  -1  185.68    9.70
  -5   6   1  180.98    9.30
  -5  -6  -1  179.58    8.70
   5   6  -1  176.78    9.20
   5   6  -1  171.68    9.50
   5  -6   1  177.48    9.20
   5   6   1  181.78    9.70
  -5   6  -1  177.58    9.10
   5  -6  -1  174.78    9.40
  -5  -6   1  178.08    9.70
   5  -6  -1  182.18    9.00
   5   6   1  193.88    9.50
   6   6  -1   37.40    3.70
   6  -6   1   27.80    3.20
  -6  -6  -1   28.60    3.50
   6  -6   1   38.20    3.50
  -6   6   1   35.50    3.50
   6   6  -1   31.20    3.90
   6  -6  -1   37.20    3.00
   6  -6  -1   34.20    3.60
   6   6   1   30.90    3.70
   6   6   1   27.30    3.10
  -6  -6   1   34.10    3.80
  -6   6  -1   31.50    3.30
   7   6  -1    9.90    1.90
  -7  -6  -1   13.30    2.50
   7   6  -1   11.70    2.70
   7  -6   1   12.60    2.30
   7  -6   1   10.90    2.10
  -7   6   1   19.10    2.80
  -7  -6   1   13.60    2.60
   7   6   1   11.80    2.80
   7   6   1   14.60    2.50
   7  -6  -1    9.20    2.00
   7  -6  -1   11.30    2.10
  -7   6  -1    9.80    2.00
   8   6  -1   10.50    2.20
   8  -6   1    9.80    2.40
  -8   6   1    7.30    1.90
   8  -6   1   12.10    2.30
   8   6  -1   12.70    3.10
  -8  -6  -1   10.20    2.40
   8  -6  -1    9.90    2.20
  -8   6  -1   11.50    2.30
   8  -6  -1   13.30    2.40
   8   6   1   11.30    3.00
   8   6   1   13.30    2.50
  -8  -6   1    9.80    2.50
   9  -6   1   31.40    3.80
  -9   6   1   24.10    3.70
  -9  -6  -1   32.20    4.30
   9   6  -1   24.40    3.60
   9  -6   1   25.80    3.70
   9  -6  -1   27.80    3.80
  -9  -6   1   27.00    4.20
   9   6   1   25.10    3.60
   9  -6  -1   23.30    3.50
  -9   6  -1   30.60    4.00
  10  -6   1    8.80    2.70
  10   6  -1    6.40    2.50
  10  -6   1    6.60    2.70
 -10   6   1    1.70    1.60
 -10  -6   1    6.40    2.80
  10   6   1    6.90    2.70
  10  -6  -1    8.50    2.40
 -10   6  -1    6.20    2.00
   0  -7   1  106.39    5.50
   0   7  -1   94.29    5.60
   0   7  -1  111.79    5.00
   0  -7  -1  102.19    5.60
   0   7  -1  103.99    5.60
   0   7  -1   95.09    4.90
   0  -7  -1  103.79    5.60
   0  -7   1   90.69    5.30
   0  -7  -1  109.89    5.20
   0  -7  -1   96.49    5.50
  -1   7   1   58.49    3.40
   1   7  -1   59.19    3.40
  -1  -7  -1   60.39    4.00
   1  -7   1   60.79    3.80
  -1  -7  -1   54.29    3.70
   1   7  -1   58.99    3.80
  -1  -7  -1   66.29    3.40
   1   7  -1   64.09    3.70
   1  -7   1   57.19    3.60
   1  -7   1   58.39    3.80
   1  -7  -1   64.79    3.80
  -1  -7   1   67.99    4.00
   1   7   1   52.89    3.40
  -1  -7   1   56.59    3.80
   1  -7  -1   62.39    3.90
  -1   7  -1   55.59    3.30
   1  -7  -1   63.09    3.80
  -1  -7   1   61.09    3.20
   1   7   1   56.49    3.00
   1   7   1   59.19    3.60
  -1   7  -1   57.69    3.20
   2   7  -1  339.97   14.80
   2  -7   1  373.36   14.70
  -2  -7  -1  336.47   14.50
  -2   7   1  326.57   14.30
  -2   7   1  307.17   14.70
  -2  -7  -1  316.37   15.00
   2   7  -1  326.07   14.90
   2   7  -1  317.27   14.70
   2  -7   1  321.47   15.00
   2  -7   1  336.37   15.30
  -2  -7  -1  296.77   15.20
  -2   7  -1  326.47   14.60
   2   7   1  336.37   14.70
   2  -7  -1  313.77   14.90
   2  -7  -1  351.66   14.70
   2   7   1  316.37   14.70
  -2  -7   1  312.67   15.30
   2   7   1  316.37   14.50
  -2  -7   1  306.87   15.00
   2  -7  -1  322.77   15.20
   3  -7   1   26.50    3.00
  -3  -7  -1   32.30    2.90
  -3  -7  -1   29.80    2.40
   3  -7   1   28.20    2.80
   3   7  -1   26.10    2.60
   3   7  -1   30.70    3.00
   3   7  -1   27.60    2.30
  -3   7   1   32.30    2.50
   3  -7  -1   30.80    2.50
   3   7   1   27.10    2.60
   3   7   1   33.10    2.50
  -3   7  -1   25.50    2.50
   3   7   1   31.50    2.60
   3   7   1   29.70    2.40
   3  -7  -1   26.90    2.90
  -3  -7   1   29.30    3.10
   4  -7   1  406.46   18.40
  -4  -7  -1  414.36   19.60
  -4   7   1  423.66   18.30
   4  -7   1  409.76   18.80
   4   7  -1  412.76   19.20
   4   7  -1  405.96   19.10
   4  -7  -1  404.56   18.90
   4   7   1  390.96   18.40
  -4   7  -1  438.36   19.00
   4   7   1  393.36   18.50
  -4  -7   1  373.46   18.80
   4  -7  -1  417.46   19.40
   5  -7   1   30.60    3.40
   5   7  -1   31.10    3.50
   5  -7   1   29.40    3.00
   5   7  -1   33.10    3.50
  -5  -7  -1   31.70    3.80
  -5   7   1   27.60    3.00
  -5   7  -1   27.40    3.00
   5  -7  -1   26.50    2.90
   5   7   1   30.10    3.40
   5  -7  -1   35.40    3.70
  -5  -7   1   25.10    3.10
   5   7   1   27.30    3.00
  -6  -7  -1   25.30    3.40
   6  -7   1   31.00    3.50
  -6   7   1   21.70    2.80
   6   7  -1   31.50    3.40
   6  -7   1   30.80    3.30
   6   7  -1   18.20    3.10
   6  -7  -1   26.40    3.20
  -6   7  -1   21.10    2.80
   6  -7  -1   23.90    2.70
   6   7   1   21.70    3.20
   6   7   1   19.80    2.70
  -6  -7   1   26.20    3.30
   7  -7   1   13.60    2.30
   7   7  -1    7.80    2.60
  -7  -7  -1   12.50    2.60
  -7   7   1   11.20    2.30
   7   7  -1   10.10    2.10
   7  -7   1   10.30    2.20
   7   7   1    8.50    2.50
   7  -7  -1   13.10    2.40
  -7   7  -1   16.30    2.60
  -7  -7   1   13.00    2.70
   7  -7  -1   12.20    2.30
   7   7   1   15.00    2.60
   8  -7   1    1.10    1.60
  -8   7   1    0.60    1.50
   8   7  -1    1.70    2.30
   8   7  -1    0.90    1.40
  -8  -7  -1   -0.70    1.40
   8  -7   1   -0.40    1.10
   8   7   1    1.10    2.00
   8  -7  -1   -0.30    1.30
   8   7   1   -0.30    1.40
  -8  -7   1    0.30    1.50
   8  -7  -1    2.70    1.60
  -8   7  -1    0.00    1.30
  -9   7   1    1.40    1.50
   9  -7   1    1.00    1.80
   9  -7   1    1.20    1.70
  -9  -7  -1    1.40    1.80
   9   7  -1    2.40    1.80
   9   7   1    0.80    3.10
  -9   7  -1    1.20    1.60
   9   7   1    0.20    1.60
  -9  -7   1   -1.00    1.80
   9  -7  -1    0.50    1.60
 -10  -7  -1   12.20    3.50
  10   7  -1   13.90    3.30
  10  -7   1    9.80    2.80
 -10   7   1   11.80    2.90
 -10   7  -1   14.10    3.00
  10  -7  -1   17.40    3.30
 -10  -7   1   10.00    3.00
  10   7   1   13.00    3.40
   0  -8  -1    0.80    0.90
   0  -8  -1   -0.20    0.70
   0   8  -1    1.20    0.90
   0   8  -1    0.10    0.80
   0   8   1    0.20    0.70
   0   8  -1    0.10    0.50
   0  -8   1   -0.50    0.80
   0  -8   1    0.20    0.80
   0   8   1   -0.20    0.40
   0  -8  -1   -1.10    0.70
   0   8   1    1.00    0.70
   1   8  -1   29.50    2.20
   1  -8   1   28.70    2.50
   1  -8   1   22.20    2.50
  -1  -8  -1   26.10    2.70
  -1  -8  -1   32.20    3.00
  -1   8   1   32.10    2.30
  -1  -8  -1   28.80    3.00
   1   8  -1   26.70    2.70
  -1   8   1   29.50    1.70
   1   8  -1   28.00    2.80
  -1   8  -1   25.60    2.90
  -1   8  -1   27.90    2.90
   1   8   1   26.10    2.40
  -1   8  -1   25.50    2.00
   1   8   1   27.30    1.90
  -1   8  -1   31.60    2.20
   1  -8  -1   30.60    3.00
  -1  -8   1   27.40    2.90
   1  -8  -1   28.80    2.50
   1   8   1   27.40    2.60
   1  -8  -1   27.40    2.80
  -1  -8   1   32.00    2.80
   2   8  -1   13.70    1.80
   2  -8   1    9.40    1.90
   2   8  -1   13.20    2.00
   2   8  -1   14.30    1.90
  -2   8   1   13.90    1.80
   2  -8   1   11.80    1.90
  -2  -8  -1   13.30    2.30
  -2  -8  -1   14.80    2.10
   2   8   1   13.50    1.90
  -2  -8   1   12.00    2.10
   2  -8  -1   14.50    2.00
   2   8   1   11.50    1.60
  -2  -8   1   12.20    1.90
   2   8   1   14.30    1.70
  -2   8  -1   14.80    1.70
   2  -8  -1   16.50    2.00
   3   8  -1   44.70    3.10
   3   8  -1   46.90    3.20
   3   8  -1   40.40    3.10
  -3  -8  -1   31.30    3.60
   3   8  -1   34.70    3.50
   3  -8   1   39.90    3.10
  -3   8   1   37.30    2.90
   3  -8   1   36.70    3.70
  -3  -8   1   34.50    3.30
   3   8   1   37.90    2.90
   3   8   1   37.50    3.60
   3  -8  -1   37.90    3.10
  -3  -8   1   34.60    3.40
  -3   8  -1   41.90    3.00
   3  -8  -1   30.50    3.40
  -4  -8  -1   35.20    3.90
   4   8  -1   32.10    3.40
   4   8  -1   33.10    3.50
   4  -8   1   34.80    3.30
  -4   8   1   33.50    2.90
   4  -8   1   33.20    3.60
   4   8   1   32.10    3.30
  -4   8  -1   40.10    3.10
   4  -8  -1   40.40    3.20
  -4  -8   1   30.90    3.60
   4  -8  -1   32.20    3.50
   4   8   1   39.40    3.70
  -5  -8  -1   36.80    4.20
  -5   8   1   32.60    3.40
   5  -8   1   32.80    3.40
   5  -8   1   24.70    3.30
   5   8  -1   28.50    3.50
   5   8  -1   31.10    3.50
   5  -8  -1   26.90    3.40
   5   8   1   29.10    3.40
  -5  -8   1   31.10    3.70
   5  -8  -1   31.10    3.20
   5   8   1   32.20    3.50
  -5   8  -1   33.70    3.30
  -6   8   1   38.40    3.90
   6   8  -1   40.80    4.60
   6   8  -1   40.10    4.20
  -6  -8  -1   41.60    4.70
   6  -8   1   38.20    4.20
   6  -8   1   41.70    3.90
   6   8   1   35.00    3.90
   6  -8  -1   46.40    4.70
  -6  -8   1   36.00    4.30
   6   8   1   49.60    4.80
   6  -8  -1   41.90    4.00
  -6   8  -1   46.40    3.80
   7  -8   1   26.40    3.70
   7  -8   1   27.10    3.40
   7   8  -1   30.50    4.40
  -7  -8  -1   30.00    4.00
  -7   8   1   30.60    3.70
   7   8  -1   36.70    4.10
  -7  -8   1   31.40    4.20
   7  -8  -1   38.90    4.40
   7   8   1   32.60    3.90
  -7   8  -1   31.30    3.80
   7   8   1   24.60    3.80
   7  -8  -1   28.50    3.40
   8  -8   1    7.60    2.10
   8   8  -1    6.80    2.70
  -8   8   1    5.90    2.10
  -8  -8  -1    4.40    2.20
   8   8  -1    0.10    1.30
   8  -8   1    5.20    2.00
   8  -8  -1    3.10    2.00
   8   8   1   10.90    3.20
  -8   8  -1    7.00    2.20
  -8  -8   1    7.40    2.40
   8   8   1    6.50    2.20
   9   8  -1   30.60    5.50
  -9   8   1   26.20    3.90
   9   8  -1   27.40    4.00
   9  -8   1   28.90    4.10
  -9  -8  -1   29.50    4.60
   9  -8   1   31.70    4.20
  -9  -8   1   32.80    4.80
  -9   8  -1   39.30    4.70
   9   8   1   29.60    5.00
   9  -8  -1   31.60    4.40
   9   8   1   34.20    4.50
   0  -9  -1  123.49    6.70
   0  -9  -1  125.39    6.80
   0  -9   1  128.39    6.80
   0   9  -1  121.49    6.80
   0   9  -1  108.69    6.50
   0  -9   1  109.29    6.60
   0   9   1  123.09    6.60
   0   9  -1  109.09    5.80
   0   9   1  115.79    6.70
   0   9   1  115.79    5.60
   1   9  -1  121.89    6.60
   1   9  -1  129.79    7.10
   1  -9   1  138.79    7.10
   1   9  -1  141.79    7.40
  -1   9   1  116.49    7.40
  -1  -9  -1  129.59    7.30
   1  -9   1  129.89    7.20
  -1  -9  -1  125.19    7.40
   1  -9  -1  151.38    7.40
  -1  -9   1  126.09    7.20
  -1   9  -1  131.09    7.50
  -1  -9   1  119.89    7.20
   1   9   1  136.09    7.20
  -1   9  -1  125.29    6.50
   1   9   1  126.59    6.30
   1  -9  -1  133.59    7.40
  -1   9  -1  129.59    7.30
   1  -9  -1  133.09    7.20
   1   9   1  139.39    7.10
   2   9  -1  206.88   10.50
  -2  -9  -1  201.98   10.80
   2   9  -1  210.38   10.20
   2  -9   1  201.38   10.60
   2   9  -1  204.28   10.30
  -2  -9  -1  210.58   10.70
  -2   9   1  208.78   10.20
   2  -9   1  230.18   11.10
   2   9   1  206.48   10.00
  -2  -9   1  209.68   11.00
   2   9   1  219.78   10.50
  -2  -9   1  208.88   10.70
   2   9   1  202.38   10.20
   2  -9  -1  222.78   10.60
   2  -9  -1  206.68   10.80
   3   9  -1   35.40    3.00
  -3   9   1   31.60    2.80
   3   9  -1   33.20    3.50
   3  -9   1   34.50    3.80
   3  -9   1   38.30    3.60
  -3  -9  -1   34.20    3.90
   3   9   1   29.90    3.00
   3   9   1   33.40    3.40
  -3  -9   1   33.10    3.40
   3  -9  -1   34.30    3.40
  -3   9  -1   34.80    2.90
  -3  -9   1   37.00    4.10
   3  -9  -1   30.90    3.50
   4   9  -1  176.98    9.80
   4  -9   1  187.48    9.80
   4   9  -1  183.18    9.80
   4  -9   1  186.28   10.20
  -4  -9  -1  188.08   10.50
  -4   9   1  193.68    9.60
   4  -9  -1  174.38   10.00
  -4  -9   1  169.18   10.20
   4   9   1  187.88    9.90
  -4   9  -1  188.28    9.50
   4  -9  -1  196.78    9.70
   4   9   1  188.38    9.70
  -5   9   1   25.90    3.00
  -5  -9  -1   20.00    3.10
   5   9  -1   17.70    2.70
   5  -9   1   20.20    3.10
   5  -9   1   19.60    2.90
   5   9  -1   22.80    3.20
  -5   9  -1   22.20    2.70
   5  -9  -1   23.60    2.90
  -5  -9   1   24.90    3.60
   5   9   1   21.60    3.10
   5   9   1   19.70    3.00
   5  -9  -1   15.90    2.90
   6   9  -1   66.09    5.60
   6  -9   1   68.09    5.00
  -6  -9  -1   69.59    5.70
  -6   9   1   61.19    4.80
   6   9  -1   68.39    5.20
   6  -9   1   61.99    5.20
   6   9   1   61.59    4.90
   6  -9  -1   65.69    5.40
  -6  -9   1   68.19    5.50
   6   9   1   76.29    5.70
   6  -9  -1   67.69    4.90
  -6   9  -1   62.39    4.90
  -7  -9  -1    7.10    2.30
   7  -9   1    2.90    1.70
   7  -9   1    3.80    1.90
  -7   9   1    7.80    2.20
   7   9  -1    5.70    2.00
   7   9  -1    5.50    2.50
  -7   9  -1    6.20    1.90
   7  -9  -1    0.70    1.40
   7   9   1    7.00    2.60
   7   9   1    6.40    1.90
  -7  -9   1    4.80    2.10
   7  -9  -1    3.90    1.90
  -8   9   1    4.00    2.10
   8  -9   1    3.60    2.00
  -8  -9  -1    3.60    2.20
   8  -9   1    4.70    2.00
   8   9  -1    5.20    1.90
   8   9  -1    1.70    2.60
  -8   9  -1    2.60    1.90
  -8  -9   1    1.40    1.60
   8   9   1    2.10    2.40
   8  -9  -1    1.20    1.90
   8   9   1   -0.20    1.50
  -9  -9  -1   12.60    3.20
  -9   9   1   15.10    3.20
   9   9  -1   10.20    3.90
   9  -9   1   14.40    3.00
   9   9  -1   14.70    3.40
   9   9   1   12.90    3.10
  -9   9  -1   10.90    2.80
  -9  -9   1   10.80    3.10
   9  -9  -1   13.10    2.90
   9   9   1    7.10    3.70
   0  10  -1   -0.70    0.60
   0  10   1    0.30    0.90
   0  10   1    0.20    0.90
   0 -10  -1    0.20    1.20
   0 -10  -1    0.40    1.10
   0 -10   1    1.40    1.20
   0 -10   1   -1.00    1.00
   0  10  -1   -0.70    0.80
   0  10   1   -0.90    0.50
   0  10  -1    0.50    0.90
   1 -10   1    7.50    1.90
  -1 -10  -1   11.30    2.10
  -1  10   1   10.60    1.30
  -1 -10  -1    7.90    1.80
   1  10  -1    8.40    1.90
  -1  10   1   10.60    2.10
  -1  10   1   10.20    1.90
   1  10  -1   10.60    1.90
   1  10  -1    7.60    1.40
  -1  10  -1   10.00    1.40
   1  10   1   11.50    2.00
   1  10   1   10.40    1.40
  -1 -10   1    6.50    1.80
  -1  10  -1    4.40    1.60
   1 -10  -1    9.50    2.00
   1  10   1   10.30    2.00
  -1 -10   1   10.90    2.10
  -1  10  -1   11.00    2.00
   2  10  -1   11.60    1.80
   2  10  -1    9.70    2.00
  -2 -10  -1    7.40    2.10
   2  10  -1   13.40    2.30
  -2 -10  -1    9.80    1.90
   2 -10   1    9.70    2.00
  -2 -10   1   10.70    2.10
  -2 -10   1    8.00    2.20
  -2  10  -1   12.60    2.40
   2 -10  -1   14.60    2.40
   2  10   1   11.10    1.70
  -2  10  -1   10.70    1.60
  -2  10  -1   12.70    2.30
   2 -10  -1   10.20    2.20
   3  10  -1    0.20    1.30
   3  10  -1    1.40    1.20
   3 -10   1    1.00    1.20
   3 -10   1    2.70    1.50
  -3 -10  -1    1.60    1.40
  -3  10   1    4.10    1.70
   3  10   1   -0.10    1.10
  -3 -10   1   -0.20    1.30
   3  10   1    1.90    1.10
  -3 -10   1    0.10    1.20
   3 -10  -1    3.30    1.60
   3 -10  -1    2.20    1.50
   4 -10   1   13.40    2.40
  -4 -10  -1    7.60    2.20
   4  10  -1    7.60    2.10
  -4  10   1    8.40    1.80
   4 -10   1   10.70    2.50
   4  10  -1   10.10    2.10
   4 -10  -1    9.10    1.90
   4 -10  -1   11.70    2.50
  -4 -10   1    9.80    2.50
   4  10   1   12.00    2.30
   4  10   1   14.00    2.30
   5 -10   1    9.90    2.20
   5 -10   1   10.20    2.50
   5  10  -1   12.40    2.50
   5  10  -1    8.90    2.30
  -5  10   1    4.80    1.70
  -5 -10  -1    8.70    2.40
   5  10   1    8.80    2.30
   5 -10  -1    8.00    2.10
   5  10   1    5.40    1.90
  -5  10  -1    6.80    1.90
   5 -10  -1    7.60    2.10
  -5 -10   1   11.80    2.80
   6  10  -1   12.60    2.70
  -6  10   1    7.80    2.10
   6  10  -1   11.70    2.80
   6 -10   1    9.30    2.40
  -6 -10  -1   12.20    2.90
   6 -10   1   13.00    2.50
   6  10   1   12.60    2.90
   6 -10  -1    9.70    2.50
  -6 -10   1    9.60    2.90
   6 -10  -1   11.20    2.40
   6  10   1   11.30    2.40
  -6  10  -1    9.40    2.30
   7  10  -1    5.90    2.60
   7  10  -1    4.50    2.10
   7 -10   1    4.80    1.90
  -7 -10  -1    7.40    2.40
   7 -10   1    3.90    1.80
  -7  10   1    3.80    2.00
   7 -10  -1    3.70    2.20
  -7 -10   1    4.10    2.10
   7  10   1    1.60    1.70
  -7  10  -1    1.50    1.70
   7  10   1    3.90    2.40
   8  10  -1   35.10    4.60
  -8 -10  -1   28.30    4.60
  -8  10   1   27.80    4.00
   8 -10   1   33.10    4.30
   8 -10   1   36.80    4.80
   8  10  -1   27.20    5.00
  -8  10  -1   33.80    4.30
  -8 -10   1   26.70    4.40
   8 -10  -1   26.50    4.20
   8  10   1   34.40    5.20
   8  10   1   36.40    4.90
   0 -11  -1   21.00    2.90
   0  11  -1   22.70    3.20
   0 -11   1   21.80    3.10
   0  11  -1   23.30    2.50
   0  11   1   24.60    2.00
   0  11   1   22.20    3.10
   0 -11  -1   19.80    3.00
   0  11   1   27.90    3.20
   0  11  -1   20.50    2.90
   0 -11   1   19.00    3.00
   1 -11   1   32.50    3.60
  -1 -11  -1   38.90    4.20
   1  11  -1   43.10    3.70
   1  11  -1   41.60    4.00
   1  11  -1   36.40    2.90
  -1  11   1   34.90    3.80
  -1 -11  -1   32.00    3.80
  -1  11   1   35.40    4.00
  -1  11   1   36.40    2.50
   1  11   1   33.10    3.70
  -1 -11   1   26.60    3.50
  -1 -11   1   37.30    3.90
  -1  11  -1   40.20    4.20
   1  11   1   33.70    2.60
  -1  11  -1   26.50    3.60
   1 -11  -1   35.90    3.90
   1  11   1   36.60    3.70
  -1  11  -1   41.80    3.00
  -2  11   1    3.30    1.50
  -2  11   1    6.70    2.00
   2 -11   1    2.70    1.60
   2  11  -1    6.60    1.60
  -2 -11  -1    4.40    1.70
  -2  11   1    5.40    1.20
  -2 -11  -1    7.30    2.00
  -2  11  -1    6.40    1.90
   2  11   1    4.70    1.40
   2 -11  -1    6.50    1.90
  -2  11  -1    6.00    1.40
  -2 -11   1    6.60    1.90
  -2 -11   1    5.30    2.00
  -2  11  -1    5.10    1.90
   2 -11  -1    7.00    2.00
   3  11  -1   20.20    2.80
   3  11  -1   27.10    3.50
  -3 -11  -1   24.80    3.50
   3 -11   1   23.30    3.20
  -3 -11   1   17.40    3.00
  -3  11  -1   21.70    2.60
   3  11   1   24.60    2.80
  -3  11  -1   26.10    3.80
   3  11   1   20.20    2.90
   3 -11  -1   24.80    3.70
   3 -11  -1   25.80    3.30
  -3  11  -1   26.90    3.60
  -4 -11  -1    3.50    2.20
   4  11  -1    8.30    2.00
   4 -11   1    7.00    2.30
   4 -11   1    6.40    1.90
   4  11  -1    3.70    1.70
   4 -11  -1    6.40    1.90
  -4 -11   1    2.80    2.00
   4  11   1    6.10    2.00
   4 -11  -1    5.50    2.10
   4  11   1    3.60    1.60
   5 -11   1   15.80    3.10
   5 -11   1   11.60    2.40
   5  11  -1   16.30    2.80
  -5 -11  -1   15.20    3.10
   5  11  -1   12.10    2.80
  -5 -11   1   10.10    2.60
   5 -11  -1   17.10    2.90
   5  11   1   14.20    2.80
   5  11   1   12.90    2.80
   5 -11  -1   15.30    3.10
   6  11  -1    4.80    2.20
   6 -11   1    1.40    1.70
  -6 -11  -1    4.10    2.60
   6 -11   1    1.60    1.60
  -6  11   1    4.90    2.10
   6  11  -1    6.80    2.60
   6 -11  -1    2.60    2.10
   6  11   1    3.00    2.20
   6 -11  -1    0.80    1.90
   6  11   1    3.40    1.70
  -6 -11   1    1.30    2.00
  -7 -11  -1   26.60    4.40
   7 -11   1   23.50    3.60
   7 -11   1   21.90    3.60
   7  11  -1   20.50    3.50
  -7  11   1   16.30    3.10
   7  11  -1   22.90    4.50
   7  11   1   19.70    3.40
   7 -11  -1   18.90    3.40
  -7 -11   1   18.10    3.70
   7  11   1   19.90    4.00
   0  12  -1    0.30    1.00
   0 -12  -1    1.00    1.50
   0  12   1   -0.40    1.30
   0 -12   1    0.90    1.50
   0  12   1    0.90    0.80
   0  12  -1    1.50    1.40
   0  12  -1    1.70    1.50
   0  12   1    0.80    1.40
   1  12  -1    1.60    1.50
  -1 -12  -1   -1.40    1.10
  -1  12   1    1.70    1.60
   1  12  -1    1.20    1.00
  -1  12   1    1.10    1.50
   1  12  -1    0.70    1.60
   1 -12   1    1.00    1.50
  -1 -12  -1    0.00    1.50
  -1  12   1    0.90    1.00
  -1  12  -1    0.50    1.00
   1  12   1    0.60    1.00
   1 -12  -1    1.70    1.50
  -1  12  -1    2.60    1.50
  -1 -12   1    2.00    1.80
  -1  12  -1    1.70    1.70
  -1 -12   1   -0.20    1.30
  -2  12   1    1.20    1.50
  -2  12   1    0.70    1.60
   2 -12   1    2.10    1.70
  -2 -12  -1    2.40    1.70
   2  12  -1    1.00    1.30
  -2  12   1    3.20    1.20
  -2 -12  -1    0.80    1.70
  -2  12  -1   -0.50    1.40
  -2 -12   1   -0.80    1.20
   2 -12  -1   -0.60    1.20
  -2 -12   1   -0.10    1.40
   2  12   1    0.00    1.00
  -2  12  -1    2.00    1.50
  -2  12  -1    1.50    1.20
  -3  12   1   13.60    2.10
  -3 -12  -1   11.60    2.80
   3  12  -1   11.90    2.60
  -3  12   1   11.20    2.70
   3  12  -1   11.50    2.30
   3 -12   1   13.50    2.60
  -3  12   1   13.40    3.00
  -3 -12   1   14.80    3.10
  -3  12  -1   10.70    2.60
   3  12   1   13.50    2.50
   3 -12  -1   12.10    2.50
   3  12   1   14.40    2.40
  -3  12  -1    8.40    2.40
   3 -12  -1   11.00    2.80
  -3  12  -1   10.80    2.20
   4 -12   1    7.30    2.30
   4  12  -1    7.50    2.30
   4  12  -1    5.70    1.90
  -4 -12  -1    7.70    2.50
   4  12   1    3.30    1.80
  -4  12  -1    5.00    2.10
   4  12   1    9.00    2.40
   4 -12  -1    9.40    2.60
  -4  12  -1    7.10    2.00
  -4 -12   1    5.20    2.50
   4 -12  -1    5.70    2.10
  -4  12  -1    9.40    2.70
   5 -12   1   23.50    3.50
   5 -12   1   23.20    3.90
  -5 -12  -1   27.40    4.50
   5  12  -1   22.60    3.40
   5  12  -1   27.60    4.00
   5  12   1   25.00    3.80
   5  12   1   27.20    4.00
   5 -12  -1   23.70    3.50
   5 -12  -1   21.50    3.90
  -5 -12   1   14.30    3.40
   6  12  -1   20.40    4.10
  -6 -12  -1   21.20    4.20
   6 -12   1   17.20    3.30
   6 -12   1   17.00    3.80
   6  12  -1   18.80    3.50
   6 -12  -1    9.60    2.80
  -6 -12   1   14.60    3.60
   6  12   1   23.00    4.10
   6  12   1   21.50    3.40
   0  13   1    4.50    1.40
   0 -13   1    6.30    1.90
   0  13  -1    5.30    1.70
   0  13  -1    5.40    2.40
   0 -13  -1    9.00    2.30
   0  13  -1    7.00    2.30
   1  13  -1    6.60    1.80
  -1 -13  -1    8.80    2.60
   1 -13   1    9.10    2.50
  -1  13   1    6.30    1.50
  -1  13   1    5.70    2.20
  -1  13   1    2.80    2.10
  -1  13  -1    7.30    2.50
  -1  13  -1    4.10    2.10
   1 -13  -1    7.10    2.30
  -1 -13   1    7.50    2.20
  -1  13  -1    7.40    1.70
   1  13   1    3.90    1.40
   2 -13   1    2.30    1.80
   2  13  -1    5.40    1.80
  -2 -13  -1    5.80    2.40
  -2  13   1    1.50    1.80
  -2  13   1    4.90    1.40
  -2  13   1    6.90    2.40
  -2 -13  -1    7.10    2.20
   2  13   1    7.70    1.80
  -2  13  -1    3.80    1.50
  -2  13  -1    4.20    2.20
   2 -13  -1    5.50    2.10
  -2  13  -1    5.00    2.20
  -2 -13   1    6.30    2.40
  -2 -13   1    2.50    2.20
  -3  13   1    0.60    1.50
  -3 -13  -1    2.00    2.20
  -3  13   1    1.90    1.40
   3  13  -1    0.90    1.60
   3  13  -1   -1.10    1.40
  -3  13   1    0.10    1.70
   3 -13   1    1.00    1.70
  -3  13  -1    1.50    2.00
   3  13   1    2.20    1.40
   3 -13  -1    2.40    1.80
  -3  13  -1    1.70    1.30
  -3 -13   1    1.50    1.90
   3  13   1   -0.80    1.40
  -3  13  -1    1.30    1.90
   4  13  -1    1.90    1.70
  -4  13   1    0.90    2.10
   4  13  -1    0.40    1.30
  -4  13   1   -0.40    1.30
  -4  13   1    0.50    1.80
   4 -13   1   -0.90    1.70
  -4 -13  -1   -0.50    2.00
   4  13   1    1.30    1.40
  -4  13  -1   -0.10    1.40
  -4 -13   1   -1.60    1.90
   4  13   1    1.00    1.70
  -4  13  -1   -0.10    1.90
  -4  13  -1   -1.10    1.70
   4 -13  -1    0.20    1.80
   5  13  -1    3.80    1.80
   5  13  -1    4.20    2.80
   5 -13   1    0.80    2.10
  -5 -13  -1    2.10    2.70
   5 -13  -1    1.90    2.30
   5  13   1    4.90    2.10
   5  13   1    5.20    2.30
  -5 -13   1    5.30    2.90
  -5  13  -1    4.10    2.20
  -5  13  -1    5.30    2.20
  -5  13  -1    4.30    1.80
   0 -14  -1   -1.20    1.70
   0  14   1   -1.50    1.10
   0  14  -1    0.40    1.20
   0 -14   1   -1.40    1.70
  -1 -14  -1   -3.20    1.50
  -1  14   1   -1.10    2.20
  -1  14   1    2.60    2.40
   1 -14   1    0.10    1.80
  -1  14   1    3.50    1.30
   1  14  -1    0.70    1.40
   1 -14  -1    3.40    2.10
  -1 -14   1   -1.20    1.70
  -1  14  -1   -0.40    1.80
  -1  14  -1   -1.60    1.70
   1  14   1    2.80    1.40
  -1  14  -1   -1.20    1.20
  -2  14   1   13.40    2.20
  -2 -14  -1    9.50    3.60
   2  14  -1   13.50    2.60
   2 -14   1   10.80    3.00
  -2  14   1   10.20    3.10
  -2  14   1   14.90    3.20
   2 -14  -1    9.70    2.80
  -2  14  -1   10.40    2.10
  -2  14  -1   10.80    3.10
  -2  14  -1   14.60    3.10
   2  14   1   14.50    2.40
  -2 -14   1    6.20    2.60
   2  14   1    9.80    2.80
  -3  14   1    1.90    1.30
   3  14  -1    3.70    1.90
  -3 -14  -1   -1.60    2.10
  -3  14   1    1.40    1.90
   3  14  -1    0.20    1.40
   3 -14   1    0.90    2.00
  -3  14   1    2.30    2.20
   3  14   1    5.00    1.80
  -3  14  -1    2.90    2.00
  -3  14  -1    0.40    1.80
   3 -14  -1   -0.20    2.00
   3  14   1   -0.60    1.30
  -3  14  -1    1.40    2.10
  -3 -14   1    3.70    2.60
   4 -14   1   17.50    3.80
  -4 -14  -1   21.90    4.50
  -4  14   1   15.70    3.70
  -4  14   1   23.40    4.00
   4  14  -1   20.90    3.70
  -4 -14   1   20.50    4.20
  -4  14  -1   19.90    4.00
   4  14   1   16.10    3.30
  -4  14  -1   17.70    3.80
   2   0   2 5210.08  215.48
  -2   0   2 5143.29  215.38
   2   0  -2 5170.68  223.08
  -2   0  -2 5357.86  223.08
  -2   0   2 5672.53  215.58
   2   0   2 4617.14  216.48
   2   0  -2 5513.75  223.18
  -3   0  -2   -0.40    0.30
  -3   0   2    0.80    0.40
   3   0  -2    0.00    0.30
   3   0   2   -0.40    0.70
   3   0  -2    0.20    0.40
   3   0   2   -0.60    0.40
  -3   0   2    0.00    0.40
   3   0   2    0.20    0.30
  -3   0  -2   -0.40    0.40
  -4   0  -2  559.84   23.80
   4   0  -2  532.75   23.80
  -4   0   2  534.65   23.60
  -4   0  -2  545.55   24.00
   4   0   2  566.64   23.50
   4   0  -2  573.14   24.40
   4   0   2  558.04   24.20
  -4   0   2  525.85   23.70
   4   0  -2  553.74   24.00
   4   0   2  547.15   23.80
  -5   0   2   -0.60    0.50
  -5   0   2   -0.60    0.50
  -5   0  -2   -0.30    0.40
   5   0   2    0.00    0.90
   5   0  -2   -0.60    1.10
   5   0  -2    0.20    0.60
   5   0  -2   -0.50    0.50
   5   0   2   -0.10    0.50
  -5   0  -2    0.40    0.60
   5   0   2    0.60    0.50
   6   0   2  609.14   27.40
   6   0   2  606.04   26.00
  -6   0  -2  603.34   26.40
  -6   0   2  603.14   26.10
   6   0  -2  614.54   26.60
   6   0   2  605.54   26.50
  -6   0   2  565.04   26.30
   6   0  -2  612.14   26.60
  -6   0  -2  590.44   26.80
  -7   0  -2   -0.40    0.90
   7   0  -2   -1.10    0.80
   7   0   2    0.90    1.00
   7   0  -2   -0.20    0.90
  -7   0   2   -1.70    0.70
  -8   0   2   67.99    4.70
   8   0  -2   70.19    4.70
   8   0   2   60.29    4.60
  -8   0  -2   67.79    4.90
   8   0  -2   72.39    4.80
   9   0  -2   -0.80    1.20
  -9   0   2   -0.90    1.00
  -9   0  -2    1.00    1.40
   9   0   2    0.50    1.40
  10   0   2    4.20    1.90
  10   0  -2    4.60    1.90
 -10   0   2    1.80    1.80
 -10   0  -2    5.60    2.30
 -11   0   2    0.50    1.90
  11   0   2    2.20    2.00
 -11   0  -2    0.20    1.80
  11   0  -2   -2.00    2.00
   1  -1   2  456.35   18.60
  -1  -1  -2  436.86   19.90
  -1  -1   2  426.76   18.60
   1  -1  -2  468.35   19.70
   1  -1  -2  484.35   19.70
   1   1   2  426.16   18.60
   2   1  -2  787.62   34.40
   2  -1   2  801.42   34.00
   2  -1   2  826.72   33.90
   2   1  -2  803.32   34.30
  -2  -1  -2  854.11   34.50
   2   1  -2  826.22   34.70
  -2  -1  -2  827.62   34.40
   2  -1  -2  796.52   34.30
   2   1   2  808.72   34.20
   2   1   2  771.12   34.00
  -2  -1   2  757.82   33.80
  -2   1  -2  809.62   34.40
  -2  -1   2  851.71   34.10
   2  -1  -2  807.62   34.50
   3   1  -2  193.78    9.40
  -3   1   2  197.68    9.30
   3   1  -2  208.28    9.10
  -3   1   2  205.68    9.10
   3  -1   2  206.68    9.40
  -3  -1  -2  199.98    9.10
   3  -1   2  203.08    9.20
   3   1  -2  197.58    9.00
  -3  -1  -2  204.88    9.10
   3   1   2  210.28    9.70
  -3   1  -2  185.38    9.10
   3  -1  -2  219.58    9.20
   3   1   2  205.28    9.40
  -3  -1   2  206.78    9.40
   3  -1  -2  193.48    8.90
  -3  -1   2  212.78    9.20
   4  -1   2   79.69    4.40
   4  -1   2   92.39    5.10
   4   1  -2   92.99    5.10
   4  -1   2   88.19    4.70
  -4   1   2   91.59    4.60
  -4   1   2   92.29    4.40
  -4  -1  -2   83.79    4.50
   4   1  -2   88.09    4.50
   4   1  -2   88.59    4.50
  -4  -1  -2   80.39    4.50
   4  -1  -2   83.59    4.60
  -4   1  -2   86.89    4.60
  -4  -1   2   80.29    4.40
   4   1   2   93.09    4.70
   4  -1  -2   84.69    4.40
   4   1   2   84.69    5.00
  -4  -1   2   81.49    4.60
   4   1   2   92.19    4.20
  -4   1  -2   88.19    4.20
   5   1  -2  122.79    6.50
  -5  -1  -2  126.99    6.60
   5  -1   2  125.69    6.80
  -5   1   2  133.39    6.90
   5   1  -2  127.19    6.60
   5  -1   2  147.19    7.50
  -5   1   2  137.99    6.50
   5  -1   2  138.39    6.70
  -5  -1  -2  124.99    6.60
   5   1  -2  133.89    7.20
   5   1   2  132.29    6.90
   5  -1  -2  120.79    6.50
  -5  -1   2  137.49    6.80
  -5   1  -2  141.49    6.30
  -5   1  -2  133.39    6.80
  -5  -1   2  137.49    6.80
   5   1   2  136.39    6.40
   5  -1  -2  146.19    6.80
   5   1   2  124.19    7.30
   5  -1  -2  139.69    8.80
  -6   1   2   26.90    2.70
  -6   1   2   28.30    3.50
   6   1  -2   30.80    3.50
  -6  -1  -2   28.30    2.70
   6  -1   2   25.90    2.20
   6   1  -2   20.10    2.20
  -6  -1  -2   22.50    2.40
   6  -1   2   22.40    2.50
   6   1  -2   25.80    2.60
   6   1   2   29.00    2.80
   6   1   2   26.40    2.10
  -6  -1   2   28.70    2.40
  -6   1  -2   22.90    2.50
  -6  -1   2   29.00    2.40
   6  -1  -2   25.80    2.60
   6   1   2   25.80    3.20
   6  -1  -2   23.90    2.40
   7   1  -2  186.98    9.20
   7   1  -2  193.18    9.50
  -7  -1  -2  177.28    9.40
   7  -1   2  189.98    9.30
  -7  -1  -2  186.48    9.40
  -7   1   2  183.48    9.60
   7  -1   2  175.98    9.50
   7   1   2  184.08    9.60
   7  -1  -2  192.08    9.40
  -7  -1   2  189.68    9.50
  -7  -1   2  192.88    9.50
   7  -1  -2  172.98    9.30
  -7   1  -2  184.38    9.60
   8   1  -2    0.50    1.10
  -8  -1  -2    1.10    1.10
  -8   1   2    0.60    1.30
   8  -1   2    2.40    1.30
  -8  -1   2    1.70    1.20
   8  -1  -2   -2.00    0.90
  -8   1  -2   -0.60    0.90
   8   1   2    1.70    1.30
   8  -1  -2   -0.80    1.00
  -9  -1  -2   53.19    4.50
   9   1  -2   55.89    4.40
  -9   1   2   53.89    4.50
   9  -1   2   56.99    4.60
   9  -1  -2   50.09    4.30
   9   1   2   53.39    4.40
  -9  -1   2   52.49    4.40
  -9   1  -2   54.69    5.20
  10   1  -2    2.70    1.80
 -10   1   2    5.80    2.30
  10  -1   2   11.10    2.50
 -10  -1  -2    6.30    2.30
  10   1   2    7.60    2.30
  10  -1  -2    5.50    2.00
 -10   1  -2    7.00    2.20
 -10  -1   2    5.80    2.10
  11   1  -2    2.40    2.10
 -11   1   2    3.00    2.10
  11  -1   2    4.60    2.20
 -11  -1  -2    1.60    2.00
  11   1   2    2.00    2.10
 -11   1  -2    5.70    3.20
 -11  -1   2    0.30    2.10
   0  -2  -2 1731.03   71.49
   0  -2  -2 1808.12   71.59
   0   2  -2 1628.34   71.49
   0   2  -2 1663.43   71.49
   0  -2   2 1703.53   71.39
  -1  -2  -2  122.69    5.70
   1   2  -2  122.29    5.60
   1   2  -2  117.09    5.60
   1  -2   2  122.39    5.70
  -1  -2  -2  119.09    5.50
  -1   2   2  123.99    5.30
   1  -2   2  123.49    5.70
   1   2  -2  120.89    5.60
  -1  -2   2  122.49    5.60
  -1   2  -2  124.39    5.50
   1   2   2  126.79    5.50
   1   2   2  126.99    5.60
  -1  -2   2  119.69    5.80
   1  -2  -2  128.19    5.70
   1  -2  -2  121.19    5.60
   2  -2   2 1493.65   63.59
  -2   2   2 1504.05   63.59
   2   2  -2 1481.85   62.39
   2   2  -2 1440.66   62.59
  -2  -2  -2 1565.14   62.59
   2  -2   2 1491.65   63.69
   2   2  -2 1522.95   62.39
  -2  -2  -2 1461.85   62.29
   2  -2  -2 1528.45   62.19
   2  -2  -2 1304.87   62.39
   2   2   2 1505.85   63.69
   2   2   2 1487.55   63.59
  -2   2  -2 1561.14   62.39
  -2  -2   2 1593.44   63.79
  -3  -2  -2  706.83   30.90
  -3   2   2  679.63   30.30
  -3  -2  -2  715.23   31.10
   3   2  -2  764.12   30.90
   3  -2   2  708.93   30.40
   3   2  -2  714.73   30.90
   3  -2   2  712.23   30.40
   3   2  -2  691.13   31.20
  -3   2   2  761.12   30.40
   3   2   2  680.53   30.30
  -3  -2   2  723.23   30.50
  -3  -2   2  718.33   30.10
   3   2   2  683.83   30.60
   3  -2  -2  751.82   31.10
   3  -2  -2  731.53   30.80
  -3   2  -2  715.03   31.00
  -4  -2  -2  118.99    6.20
   4   2  -2  115.59    6.50
   4  -2   2  119.29    6.10
   4   2  -2  126.39    5.90
  -4   2   2  112.99    6.10
   4  -2   2  122.89    6.00
  -4  -2  -2  117.99    6.00
  -4   2   2  131.39    5.60
   4   2  -2  117.19    6.00
  -4   2  -2  125.09    6.20
  -4  -2   2  109.29    5.80
   4   2   2  113.79    6.00
  -4  -2   2  117.49    6.20
   4  -2  -2  128.89    6.00
   4  -2  -2  122.59    6.20
   4   2   2  125.99    6.50
   4   2   2  128.19    5.50
  -5   2   2  257.27   11.10
   5  -2   2  244.38   11.60
  -5  -2  -2  241.18   11.40
   5  -2   2  250.87   11.60
   5   2  -2  246.88   11.30
   5   2  -2  245.18   11.50
  -5   2   2  240.08   11.70
   5   2  -2  259.47   12.20
  -5  -2  -2  244.58   11.60
   5  -2  -2  251.37   11.60
   5   2   2  239.68   11.70
   5   2   2  257.67   11.10
  -5   2  -2  244.78   11.60
   5  -2  -2  240.88   11.30
   5   2   2  260.87   12.30
  -5  -2   2  255.37   11.50
  -5  -2   2  229.68   11.70
   6   2  -2   67.49    4.70
   6   2  -2   60.59    3.60
   6  -2   2   57.29    3.60
  -6   2   2   54.69    3.80
   6  -2   2   57.59    3.80
   6   2  -2   55.89    3.80
  -6  -2  -2   58.19    3.90
  -6  -2  -2   48.90    3.60
  -6  -2   2   57.79    3.60
  -6  -2   2   50.39    3.70
  -6   2  -2   60.99    4.00
   6  -2  -2   59.69    3.70
   6   2   2   57.39    3.80
   6   2   2   51.49    4.30
   6  -2  -2   56.99    3.90
  -7  -2  -2   -0.60    0.80
   7   2  -2    0.60    1.10
   7  -2   2    0.00    1.00
  -7   2   2    0.30    1.10
   7  -2   2    4.20    1.40
  -7  -2  -2    2.30    1.20
   7  -2  -2    1.10    1.00
  -7  -2   2    1.00    1.00
   7  -2  -2    0.90    1.00
   7   2   2    1.10    0.90
   7   2   2    1.60    1.80
  -7   2  -2    0.70    1.00
  -7  -2   2    0.30    1.00
   8   2  -2   65.49    4.60
  -8   2   2   61.09    4.50
  -8  -2  -2   60.69    4.50
   8  -2   2   63.79    4.50
   8  -2   2   56.99    4.80
   8  -2  -2   62.19    4.40
  -8  -2   2   58.89    4.60
   8  -2  -2   59.19    4.40
  -8   2  -2   60.09    4.70
   8   2   2   61.99    4.50
  -8  -2   2   57.79    4.30
   9  -2   2    2.60    1.60
  -9   2   2    3.00    1.80
   9   2  -2    2.50    1.50
  -9  -2  -2    3.50    1.60
   9  -2  -2    4.00    1.60
  -9   2  -2    4.20    1.90
   9   2   2    2.40    1.60
  -9  -2   2    3.70    1.70
   9  -2  -2    6.20    1.90
  10  -2   2    2.10    1.70
 -10  -2  -2    0.20    1.70
  10   2  -2    3.50    1.80
 -10   2   2    1.10    1.70
 -10  -2   2    1.20    1.70
 -10   2  -2    3.30    1.90
  10  -2  -2    2.10    1.90
  10   2   2    3.90    2.00
  11   2  -2   -1.30    2.00
 -11   2   2   -0.70    2.00
  11  -2   2    4.80    2.10
 -11  -2  -2    1.90    2.10
 -11  -2   2    1.10    2.10
 -11   2  -2    1.60    2.30
  11   2   2    2.10    2.10
   0   3  -2    0.10    0.30
   0  -3   2    0.20    0.40
   0  -3   2   -0.20    0.30
   0  -3  -2   -0.30    0.30
   0   3  -2    0.50    0.30
   0  -3  -2    4.20    0.70
   0  -3  -2   -0.20    0.30
   0  -3  -2    0.40    0.30
   0   3  -2   -0.20    0.30
   1  -3   2 1387.26   57.29
   1   3  -2 1406.96   57.79
  -1  -3  -2 1351.86   57.99
  -1  -3  -2 1383.66   57.79
   1   3  -2 1319.07   57.79
  -1  -3  -2 1348.97   57.69
   1   3  -2 1321.37   57.69
   1  -3   2 1369.26   57.29
   1   3   2 1370.76   56.79
  -1  -3   2 1336.27   57.19
  -1   3  -2 1333.77   57.59
  -1  -3   2 1356.96   57.29
   1  -3  -2 1492.75   57.69
   1  -3  -2 1356.76   57.89
   1   3   2 1330.97   56.79
   1  -3  -2 1382.86   57.69
   1  -3  -2 1401.46   57.79
   2  -3   2  686.93   28.40
  -2  -3  -2  653.83   27.60
  -2   3   2  673.53   28.30
  -2  -3  -2  675.73   28.00
   2   3  -2  666.03   27.70
   2  -3   2  635.94   28.30
   2   3  -2  632.84   27.80
   2  -3  -2  676.63   27.60
   2  -3  -2  613.04   27.80
   2   3   2  666.93   28.30
  -2  -3   2  658.93   28.40
  -2  -3   2  628.54   28.20
  -2   3  -2  610.74   27.60
   2   3   2  669.93   28.20
   3  -3   2   22.80    1.80
   3   3  -2   19.10    1.60
  -3  -3  -2   22.90    1.70
   3   3  -2   25.30    2.30
   3   3  -2   20.10    1.70
  -3  -3  -2   20.50    1.90
  -3   3   2   22.60    1.80
   3  -3   2   19.80    1.90
  -3  -3   2   23.30    1.50
  -3   3  -2   22.20    1.70
  -3  -3   2   20.20    1.80
   3  -3  -2   21.30    1.60
   3   3   2   22.60    1.80
   3  -3  -2   21.70    1.80
   3   3   2   22.80    2.10
   4  -3   2  514.65   23.50
  -4  -3  -2  549.85   23.60
  -4   3   2  534.55   23.60
   4  -3   2  539.85   23.60
   4   3  -2  527.55   23.70
  -4   3   2  570.94   23.00
   4   3  -2  543.35   24.10
  -4  -3  -2  560.44   24.00
   4   3  -2  554.74   23.50
  -4  -3   2  500.65   23.10
  -4   3  -2  544.55   23.80
   4  -3  -2  528.55   23.50
  -4  -3   2  534.65   23.80
   4   3   2  510.85   23.50
   4  -3  -2  525.05   23.80
   4   3   2  583.84   22.90
   4   3   2  543.85   23.90
   5   3  -2  126.49    6.50
   5  -3   2  118.99    6.30
  -5   3   2  124.99    6.40
   5   3  -2  123.29    6.10
   5  -3   2  111.79    6.30
  -5  -3  -2  123.19    6.70
  -5  -3  -2  118.89    6.30
   5   3  -2  123.59    7.00
   5  -3  -2  126.09    6.60
   5   3   2  128.39    6.90
   5   3   2  120.39    6.40
  -5  -3   2  123.79    6.00
  -5   3  -2  122.09    6.50
  -5  -3   2  116.99    6.50
   5  -3  -2  122.69    6.30
   6   3  -2   54.79    3.50
   6  -3   2   56.49    3.70
  -6  -3  -2   49.10    3.80
   6  -3   2   55.69    3.80
  -6  -3  -2   49.80    3.50
  -6   3   2   56.89    3.90
   6   3  -2   54.79    3.70
   6   3  -2   61.29    4.60
   6  -3  -2   55.39    3.80
   6   3   2   51.89    4.40
  -6  -3   2   57.89    3.60
   6   3   2   54.59    3.90
   6  -3  -2   55.59    3.60
  -6   3  -2   55.49    3.90
  -6  -3   2   49.80    3.80
   7   3  -2  131.99    7.90
   7  -3   2  122.99    6.90
  -7  -3  -2  131.59    6.90
  -7   3   2  117.49    7.00
  -7  -3  -2  116.59    7.00
   7  -3   2  122.89    7.00
   7   3  -2  125.09    6.90
   7  -3  -2  111.59    6.90
   7   3   2  132.19    8.00
  -7   3  -2  127.19    7.10
   7  -3  -2  119.79    6.70
  -7  -3   2  125.99    6.70
   7   3   2  121.89    7.00
  -7  -3   2  119.39    7.10
   8  -3   2   45.30    3.90
  -8   3   2   50.99    4.10
   8   3  -2   47.80    3.90
  -8  -3  -2   43.80    3.80
  -8  -3  -2   42.20    3.70
   8  -3   2   48.50    3.80
  -8  -3   2   42.50    3.90
   8  -3  -2   52.99    3.90
  -8  -3   2   41.70    3.60
   8   3   2   58.29    4.30
  -8   3  -2   41.70    4.30
   8  -3  -2   48.20    3.90
   9  -3   2   39.30    4.30
   9   3  -2   36.90    4.00
  -9  -3  -2   34.00    3.80
  -9   3   2   48.10    4.90
   9   3   2   34.80    4.00
  -9  -3   2   32.10    3.70
   9  -3  -2   37.00    3.90
   9  -3  -2   32.20    3.80
  -9   3  -2   36.00    4.10
 -10  -3  -2   36.30    4.30
 -10   3   2   32.20    4.20
  10   3  -2   39.50    4.30
  10  -3   2   31.40    4.00
  10   3   2   28.70    4.00
 -10   3  -2   34.00    4.30
 -11  -3  -2    2.20    2.40
  11  -3   2    2.30    2.10
 -11   3   2    3.20    2.60
  11   3  -2    6.00    2.70
  11   3   2    0.00    2.00
 -11   3  -2    2.10    2.30
   0  -4   2  803.22   33.00
   0  -4  -2  703.83   31.60
   0  -4   2  740.73   33.00
   0   4  -2  739.43   31.50
   0  -4  -2  697.13   31.70
   0   4  -2  794.12   31.80
   0  -4  -2  766.52   31.60
   0   4  -2  767.82   31.80
   0  -4  -2  734.43   31.60
   1  -4   2  378.16   17.00
   1  -4   2  371.06   16.90
   1   4  -2  349.87   16.20
  -1  -4  -2  353.66   16.40
   1   4  -2  362.46   16.10
  -1  -4  -2  354.26   16.00
  -1  -4  -2  367.26   16.20
   1   4  -2  367.86   16.10
  -1  -4  -2  377.76   16.10
   1  -4   2  429.56   16.70
   1  -4  -2  371.76   16.10
  -1  -4   2  391.36   17.00
   1   4   2  370.86   16.30
  -1   4  -2  381.96   15.90
  -1  -4   2  370.46   16.90
   1  -4  -2  397.06   16.10
   1  -4  -2  376.26   16.10
  -2   4   2  184.58    8.20
  -2  -4  -2  180.88    8.80
   2   4  -2  179.28    8.60
   2   4  -2  178.78    8.50
  -2   4   2  174.48    7.80
  -2  -4  -2  188.98    8.40
   2  -4   2  170.38    8.30
  -2   4   2  182.08    7.90
   2  -4   2  173.08    8.20
  -2  -4   2  171.58    8.40
   2   4   2  188.08    7.80
   2  -4  -2  179.18    8.70
   2   4   2  158.48    8.10
   2  -4  -2  182.98    8.40
   2   4   2  183.58    7.90
  -2   4  -2  191.78    8.40
   2   4   2  167.28    8.00
  -2  -4   2  171.88    8.20
   3   4  -2 1096.19   49.30
  -3  -4  -2 1162.58   48.90
   3   4  -2 1145.49   49.10
   3   4  -2 1135.19   48.90
  -3   4   2 1199.98   48.10
  -3  -4  -2 1223.48   49.50
   3  -4   2 1148.89   48.70
  -3   4   2 1137.39   48.70
   3  -4   2 1112.49   48.80
   3   4   2 1164.78   48.80
  -3  -4   2 1055.29   48.90
  -3  -4   2 1132.99   48.20
   3   4   2 1143.49   48.70
   3  -4  -2 1147.19   49.30
  -3   4  -2 1192.98   49.10
   3   4   2 1191.98   48.10
   3  -4  -2 1128.29   48.90
  -4  -4  -2   79.59    5.00
   4   4  -2   97.19    5.30
   4   4  -2   83.09    4.80
   4   4  -2   92.29    4.60
  -4  -4  -2   88.89    4.60
  -4   4   2   84.49    4.80
   4  -4   2   85.79    4.90
   4  -4   2   82.29    4.70
   4   4   2   82.69    4.80
  -4   4  -2   89.19    4.80
  -4  -4   2   90.49    4.40
   4  -4  -2   80.69    4.90
  -4  -4   2   81.39    5.00
   4   4   2   86.69    5.00
   4   4   2   89.99    4.10
   4  -4  -2   84.89    4.60
   5   4  -2   16.80    2.00
  -5  -4  -2   26.30    2.40
   5  -4   2   15.60    1.90
  -5   4   2   18.00    2.10
   5   4  -2   20.90    2.00
   5  -4   2   18.30    2.20
   5   4  -2   18.70    2.50
  -5  -4  -2   19.10    2.40
  -5  -4   2   19.20    1.90
  -5  -4   2   17.60    2.30
   5   4   2   21.60    2.70
  -5   4  -2   17.20    2.10
   5   4   2   20.40    2.30
   5  -4  -2   17.40    1.90
   5  -4  -2   17.90    2.30
  -6   4   2   54.29    4.00
  -6  -4  -2   64.79    4.00
   6   4  -2   65.89    4.30
   6  -4   2   54.69    4.00
   6  -4   2   62.09    4.10
  -6  -4  -2   60.99    4.40
   6   4  -2   72.69    5.00
  -6  -4   2   61.29    3.70
   6  -4  -2   61.19    4.30
   6   4   2   61.89    4.10
  -6   4  -2   60.69    4.30
  -6  -4   2   57.29    4.30
   6   4   2   65.49    4.70
   6  -4  -2   61.49    4.00
   7   4  -2   15.20    2.30
  -7  -4  -2   20.30    2.70
   7  -4   2   21.10    2.60
   7  -4   2   19.60    2.60
   7   4  -2   26.40    3.70
  -7   4   2   24.10    3.00
  -7  -4  -2   20.30    2.50
  -7   4  -2   22.10    2.70
  -7  -4   2   20.70    2.80
   7   4   2   20.10    2.80
   7  -4  -2   21.00    2.60
   7  -4  -2   27.50    3.20
  -7  -4   2   25.20    2.60
   7   4   2   27.30    3.80
   8  -4   2   32.00    3.50
  -8  -4  -2   34.40    3.60
  -8   4   2   28.80    3.40
   8   4  -2   41.60    4.10
   8  -4   2   36.20    3.60
  -8  -4  -2   37.30    4.00
   8  -4  -2   41.20    4.20
  -8  -4   2   36.40    4.10
  -8   4  -2   31.90    3.70
   8   4   2   29.70    3.60
   8  -4  -2   30.10    3.40
   8   4   2   35.50    4.60
   9  -4   2   12.40    2.50
  -9   4   2   12.50    2.80
   9   4  -2   18.50    2.90
  -9  -4  -2   12.70    2.50
   9  -4   2   11.30    2.50
  -9   4  -2   10.90    2.40
   9  -4  -2    7.70    2.10
   9   4   2   15.90    2.90
  -9  -4   2   13.80    2.80
   9  -4  -2   11.50    2.40
 -10   4   2    8.30    2.50
 -10  -4  -2    7.60    2.50
  10   4  -2    6.90    2.20
  10  -4   2    9.40    2.50
  10   4   2    3.70    2.20
  10  -4  -2   10.90    2.70
 -10   4  -2    7.70    2.60
  11  -4   2    1.00    2.20
  11   4  -2    1.30    2.20
 -11   4   2   -2.00    2.30
 -11   4  -2    6.00    2.90
  11   4   2    2.40    2.50
   0   5  -2    0.40    0.30
   0   5  -2    0.00    0.50
   0  -5   2    0.50    0.50
   0  -5  -2    0.80    0.50
   0  -5  -2   -0.10    0.40
   0   5  -2    0.10    0.40
   0  -5  -2    0.30    0.40
   0   5  -2    0.40    0.50
   0  -5   2    0.80    0.60
   0  -5  -2    0.70    0.50
  -1  -5  -2   24.90    1.80
   1  -5   2   22.10    1.80
   1  -5   2   24.70    1.70
   1   5  -2   22.60    1.80
  -1  -5  -2   27.10    2.10
  -1  -5  -2   25.80    1.70
   1   5  -2   21.30    1.70
   1   5  -2   24.70    1.80
   1  -5   2   23.80    2.00
  -1  -5   2   24.80    2.00
   1   5   2   23.40    1.30
  -1   5  -2   21.40    1.70
   1  -5  -2   23.10    1.90
  -1   5  -2   20.90    1.50
   1  -5  -2   26.30    1.90
  -1  -5   2   23.70    2.00
   1  -5  -2   21.60    1.70
   1  -5  -2   24.20    1.80
   1   5   2   24.40    1.70
   1   5   2   26.10    1.80
   2  -5   2  334.77   14.90
   2  -5   2  322.27   14.20
  -2   5   2  328.47   14.10
  -2   5   2  325.17   14.60
   2  -5   2  311.77   14.70
  -2  -5  -2  330.47   15.30
   2   5  -2  340.37   14.90
  -2  -5  -2  343.47   14.80
   2   5  -2  313.07   14.90
   2   5  -2  336.27   15.00
   2   5   2  327.37   14.70
  -2  -5   2  300.47   14.90
   2   5   2  349.37   14.40
   2  -5  -2  334.27   15.10
  -2  -5   2  345.17   14.20
  -2  -5   2  300.07   14.70
   2  -5  -2  335.67   14.70
   2  -5  -2  343.27   14.90
   2   5   2  350.06   14.30
   2   5   2  323.37   14.40
  -2   5  -2  329.87   14.80
  -3   5   2  480.95   21.10
   3  -5   2  508.45   21.40
   3   5  -2  469.15   21.20
   3   5  -2  503.25   21.10
  -3   5   2  502.75   20.50
  -3   5   2  459.05   20.80
   3   5  -2  459.15   21.30
  -3  -5  -2  500.15   21.60
  -3  -5  -2  475.15   20.90
   3  -5   2  453.95   21.10
  -3   5  -2  444.86   21.00
   3   5   2  459.05   21.10
  -3  -5   2  489.75   20.50
  -3  -5   2  442.16   21.40
   3  -5  -2  482.05   21.10
   3  -5  -2  504.35   21.50
   3   5   2  504.85   20.60
   3   5   2  470.75   21.10
   4  -5   2  300.17   13.80
   4  -5   2  287.97   13.90
   4   5  -2  298.97   13.60
  -4  -5  -2  297.67   13.50
  -4   5   2  267.67   13.60
  -4  -5  -2  297.97   14.30
   4   5  -2  302.37   14.20
   4   5  -2  299.37   13.90
   4   5   2  307.07   14.00
   4   5   2  293.77   13.80
  -4  -5   2  310.97   13.20
   4  -5  -2  303.67   13.70
  -4   5  -2  305.97   13.80
  -4  -5   2  307.17   14.20
   4  -5  -2  289.27   14.10
   5   5  -2  143.39    8.00
  -5  -5  -2  149.69    7.30
   5  -5   2  132.49    7.20
  -5  -5  -2  149.99    8.00
  -5   5   2  142.19    7.40
   5   5  -2  149.69    7.20
   5  -5   2  137.29    7.40
   5   5  -2  135.59    7.50
  -5   5  -2  138.59    7.50
  -5  -5   2  134.59    7.60
   5  -5  -2  134.49    7.70
   5   5   2  139.49    7.30
   5  -5  -2  148.89    7.40
   5   5   2  133.89    7.60
  -5  -5   2  137.29    6.70
   6   5  -2  185.58   10.00
   6  -5   2  177.78    8.90
  -6   5   2  167.98    8.90
  -6  -5  -2  189.58    9.80
   6   5  -2  175.88    9.30
  -6  -5  -2  177.38    8.90
   6  -5   2  161.28    8.90
  -6  -5   2  166.38    9.20
  -6   5  -2  173.88    9.30
   6  -5  -2  170.48    9.40
   6   5   2  164.68    8.80
   6   5   2  178.28    9.50
   6  -5  -2  184.08    9.00
  -7  -5  -2   15.40    2.30
   7  -5   2   11.80    2.20
  -7  -5  -2   15.00    2.50
   7   5  -2   15.40    2.90
  -7   5   2   13.30    2.30
   7   5  -2   13.00    2.30
   7  -5   2   10.40    2.00
   7   5   2   16.10    2.50
   7   5   2   12.30    2.50
   7  -5  -2   16.00    2.50
  -7  -5   2   11.40    2.30
  -7   5  -2   12.00    2.20
   7  -5  -2   13.50    2.10
  -8  -5  -2   58.49    4.90
   8   5  -2   57.69    4.60
  -8  -5  -2   64.19    4.70
   8  -5   2   60.19    4.70
   8  -5   2   63.99    4.70
   8   5  -2   78.79    9.50
  -8   5   2   59.59    4.80
   8   5   2   60.49    6.10
   8  -5  -2   56.89    4.70
  -8  -5   2   64.19    5.00
  -8   5  -2   63.29    4.80
   8  -5  -2   61.99    4.50
   8   5   2   56.09    4.70
   9  -5   2    2.80    1.80
   9   5  -2    4.50    2.00
   9  -5   2    4.80    1.90
  -9   5   2    6.10    2.00
  -9  -5  -2    4.70    1.90
   9   5   2    5.20    2.10
  -9   5  -2    6.00    2.00
   9  -5  -2    3.50    1.80
  -9  -5   2    6.10    2.10
 -10   5   2   84.19    6.80
  10   5  -2   91.69    6.80
  10  -5   2   95.09    6.50
 -10   5  -2   87.29    6.70
  10   5   2   77.79    6.50
  10  -5  -2   92.29    6.80
   0  -6   2   10.50    1.50
   0   6  -2   12.20    1.60
   0  -6  -2   10.30    1.50
   0  -6  -2    9.60    1.30
   0   6  -2    7.50    1.00
   0  -6  -2   11.70    1.50
   0  -6   2   11.10    1.50
   0   6  -2    6.90    1.30
   0   6  -2   10.50    1.00
   0  -6  -2   10.60    1.20
  -1  -6  -2  251.27   11.70
   1  -6   2  283.57   12.20
   1  -6   2  248.48   11.70
  -1  -6  -2  262.07   12.00
   1   6  -2  257.37   11.70
   1   6  -2  246.58   11.80
  -1  -6  -2  261.37   11.40
   1   6  -2  252.67   11.50
   1  -6   2  255.87   12.00
  -1  -6   2  232.98   12.00
  -1   6  -2  271.07   11.30
  -1  -6   2  278.57   11.20
   1  -6  -2  257.57   11.90
  -1  -6   2  251.67   12.00
  -1   6  -2  250.37   11.40
   1  -6  -2  247.58   11.70
   1   6   2  240.78   11.70
   1  -6  -2  247.58   11.70
   1  -6  -2  244.28   11.50
   1   6   2  265.97   11.70
   1   6   2  257.47   11.10
  -2  -6  -2   53.29    3.60
  -2  -6  -2   49.80    3.30
   2  -6   2   47.40    2.70
  -2  -6  -2   47.20    3.00
   2   6  -2   54.79    3.20
   2  -6   2   40.70    3.20
   2   6  -2   51.69    3.30
   2  -6   2   52.19    3.30
  -2   6   2   48.70    2.50
  -2   6   2   46.60    3.00
   2   6  -2   45.30    3.20
   2   6   2   48.80    2.80
  -2  -6   2   50.39    2.50
   2  -6  -2   54.39    3.30
   2   6   2   45.50    2.80
   2   6   2   45.10    2.70
  -2   6  -2   52.89    3.00
   2  -6  -2   49.00    3.40
  -2  -6   2   50.79    3.40
  -2  -6   2   46.10    3.10
   2  -6  -2   55.49    3.10
  -3  -6  -2  721.93   33.90
   3  -6   2  763.82   34.10
   3  -6   2  736.83   33.80
   3   6  -2  828.52   33.40
  -3  -6  -2  781.32   33.10
   3   6  -2  770.42   33.60
   3   6  -2  764.92   33.60
  -3   6   2  783.12   33.70
   3   6   2  838.12   33.30
   3   6   2  819.02   33.40
   3  -6  -2  710.43   33.60
   3  -6  -2  777.02   33.30
  -3   6  -2  807.62   33.30
  -3  -6   2  791.32   34.30
   3   6   2  727.53   33.60
   3   6   2  764.02   33.90
   4  -6   2    2.40    1.00
  -4  -6  -2    4.30    1.40
   4   6  -2    3.10    1.00
   4   6  -2    3.50    1.40
   4   6  -2    5.10    1.30
  -4  -6  -2    3.70    1.00
  -4   6   2    2.00    0.90
   4  -6   2    1.60    1.00
  -4   6  -2    2.10    0.90
   4  -6  -2    3.90    1.10
   4   6   2    2.90    1.20
   4  -6  -2    3.60    1.10
   4   6   2    4.40    1.20
  -4  -6   2    3.00    1.20
  -5   6   2  392.56   17.70
   5   6  -2  409.56   18.60
   5   6  -2  374.66   18.00
  -5  -6  -2  413.56   17.70
   5  -6   2  381.66   17.60
  -5  -6  -2  366.96   18.50
   5  -6   2  383.26   17.90
  -5   6  -2  366.66   17.90
   5  -6  -2  411.16   18.40
  -5  -6   2  388.66   18.20
   5   6   2  366.96   17.60
   5  -6  -2  390.46   17.80
   5   6   2  371.86   17.90
   6   6  -2   31.70    3.80
  -6  -6  -2   29.70    3.70
  -6  -6  -2   34.50    3.10
   6  -6   2   29.30    3.10
   6  -6   2   32.80    3.40
  -6   6   2   22.50    2.80
   6   6  -2   28.10    3.20
   6  -6  -2   38.70    2.90
   6   6   2   29.50    3.60
   6  -6  -2   23.40    3.00
  -6  -6   2   28.60    3.60
   6   6   2   23.60    3.00
  -6   6  -2   33.10    3.30
   7   6  -2   10.00    2.10
   7   6  -2   12.30    2.80
   7  -6   2   11.40    2.10
  -7   6   2    9.40    2.00
   7  -6   2   10.80    2.00
  -7  -6  -2    7.30    2.00
  -7   6  -2    7.20    1.90
   7  -6  -2    7.90    1.90
   7   6   2   12.90    2.30
  -7  -6   2    6.00    1.90
   7   6   2   12.20    2.60
   7  -6  -2   10.30    1.90
   8  -6   2   14.30    2.50
   8   6  -2   14.40    3.50
   8  -6   2   17.40    2.80
  -8  -6  -2   15.90    3.00
  -8   6   2   13.30    2.50
   8   6  -2   13.30    2.50
  -8  -6   2   18.40    3.20
  -8   6  -2   12.90    2.50
   8  -6  -2   15.00    2.80
   8   6   2   17.80    2.90
   8   6   2   19.70    3.60
   8  -6  -2   18.70    2.70
   9  -6   2   14.50    2.90
  -9   6   2    9.70    2.30
   9  -6   2   13.90    2.60
   9   6  -2    7.70    2.30
  -9  -6  -2   11.30    2.80
  -9   6  -2   10.50    2.50
  -9  -6   2   17.00    3.20
   9  -6  -2   11.40    2.80
   9   6   2   11.80    2.80
 -10   6   2    2.50    1.60
  10  -6   2   -3.00    1.60
  10   6  -2    0.90    1.90
 -10   6  -2    2.60    1.80
  10  -6  -2    0.40    1.90
  10   6   2    1.70    2.00
 -10  -6   2    3.50    2.70
   0  -7   2    0.00    0.50
   0  -7   2   -0.20    0.60
   0   7  -2   -0.30    0.60
   0  -7  -2    0.10    0.60
   0  -7  -2   -0.10    0.60
   0  -7  -2    0.50    0.60
   0   7  -2   -0.60    0.50
   0   7  -2   -0.30    0.60
   0  -7  -2   -0.60    0.60
   0   7  -2    0.50    0.60
   1  -7   2   64.49    4.10
  -1  -7  -2   67.49    4.30
   1   7  -2   70.09    4.20
  -1  -7  -2   68.39    3.80
  -1  -7  -2   68.29    4.10
   1   7  -2   69.69    4.10
   1  -7   2   63.99    4.00
   1   7  -2   67.89    3.80
   1   7   2   71.39    3.40
  -1   7  -2   61.79    3.70
   1  -7  -2   72.79    4.20
  -1   7  -2   64.69    3.60
   1  -7  -2   69.69    3.90
   1  -7  -2   66.79    4.00
   1   7   2   72.29    4.00
  -1  -7   2   73.39    4.40
  -1   7  -2   64.89    4.20
   1   7   2   71.99    4.10
  -1  -7   2   65.99    4.20
   1  -7  -2   71.19    4.10
  -1   7  -2   69.09    4.30
   2  -7   2    2.10    0.80
  -2   7   2    0.70    0.70
   2  -7   2    1.00    0.90
   2   7  -2    1.60    0.90
  -2  -7  -2    2.70    1.00
  -2  -7  -2    3.00    1.20
   2   7  -2    1.70    0.80
   2   7  -2    0.30    0.70
  -2   7   2    2.10    0.60
   2  -7   2    1.50    0.80
  -2  -7  -2    2.20    0.80
  -2  -7   2    0.80    0.80
  -2   7  -2    0.90    0.70
   2   7   2    1.80    0.70
   2  -7  -2    2.00    0.80
  -2  -7   2    3.00    1.00
   2  -7  -2    4.00    1.10
   2  -7  -2    0.80    0.90
   2   7   2    2.10    0.80
   2   7   2    2.40    0.80
  -3   7   2   34.20    2.60
   3   7  -2   37.20    2.80
  -3  -7  -2   40.90    2.70
   3  -7   2   35.70    2.80
  -3  -7  -2   40.20    3.20
   3   7  -2   32.60    2.90
   3  -7   2   34.10    2.90
   3  -7  -2   33.70    3.00
  -3  -7   2   31.10    2.90
   3   7   2   32.30    3.10
  -3  -7   2   28.40    2.90
  -3   7  -2   34.50    2.60
   3  -7  -2   31.60    2.70
   3   7   2   32.50    2.60
   4   7  -2  153.48    7.80
   4  -7   2  143.29    8.00
  -4   7   2  155.28    7.70
   4   7  -2  143.89    8.00
  -4  -7  -2  148.69    8.50
   4  -7   2  143.69    7.70
  -4  -7  -2  161.38    8.10
   4   7  -2  155.28    8.20
   4  -7  -2  154.88    7.80
   4   7   2  143.79    7.70
   4   7   2  131.09    7.70
   4  -7  -2  130.19    8.00
  -4  -7   2  152.98    8.20
  -4   7  -2  151.98    7.70
   5   7  -2   48.70    4.10
  -5  -7  -2   48.20    4.10
   5   7  -2   49.90    3.90
   5  -7   2   53.39    3.80
  -5   7   2   48.90    3.70
   5  -7   2   51.29    3.90
   5  -7  -2   54.09    3.70
  -5   7  -2   56.49    3.90
  -5  -7   2   46.60    4.00
   5   7   2   44.50    3.90
   5   7   2   43.10    3.60
   5  -7  -2   47.40    3.90
  -6   7   2   41.50    3.60
   6   7  -2   49.60    4.80
  -6  -7  -2   41.40    4.40
   6  -7   2   38.10    4.20
   6  -7   2   46.50    4.30
   6   7  -2   33.80    3.70
   6   7   2   49.00    3.90
   6  -7  -2   48.70    3.60
   6  -7  -2   47.50    3.90
   6   7   2   42.20    4.40
  -6  -7   2   44.90    4.10
  -6   7  -2   44.80    3.70
   7  -7   2   15.60    2.60
  -7  -7  -2   22.40    3.40
   7   7  -2   14.80    2.50
   7  -7   2   20.70    3.20
   7   7  -2   21.20    3.50
  -7   7   2   19.70    2.80
  -7   7  -2   18.10    2.80
   7  -7  -2   18.90    2.70
   7   7   2   17.10    3.10
   7   7   2   13.70    2.60
   7  -7  -2   20.90    3.10
  -7  -7   2   18.00    3.00
  -8   7   2   19.80    3.20
  -8  -7  -2   25.70    3.90
   8  -7   2   27.00    3.70
   8   7  -2   23.70    4.00
   8   7  -2   29.30    3.80
   8  -7   2   23.90    3.30
  -8   7  -2   18.50    3.10
  -8  -7   2   20.00    3.30
   8  -7  -2   30.30    4.00
   8   7   2   23.30    3.20
   8   7   2   22.80    3.90
   9  -7   2    5.90    2.20
  -9  -7  -2    5.30    2.40
  -9   7   2    8.40    2.30
   9   7  -2    4.90    2.20
   9  -7   2    4.80    2.00
   9  -7  -2    8.00    2.10
   9   7   2   12.40    3.90
  -9  -7   2    4.70    2.30
  -9   7  -2    8.70    2.40
   9   7   2    6.00    2.30
  10  -7   2   29.80    4.40
  10   7  -2   29.70    4.40
  10  -7   2   33.70    4.50
 -10   7   2   33.00    4.40
 -10  -7  -2   38.00    5.30
  10  -7  -2   34.60    4.70
 -10   7  -2   31.20    4.40
  10   7   2   39.20    5.00
 -10  -7   2   25.30    4.40
   0  -8  -2  302.27   14.30
   0   8  -2  298.37   14.10
   0   8  -2  301.67   13.60
   0  -8   2  296.17   14.00
   0   8  -2  270.97   14.10
   0  -8  -2  289.27   14.10
   0  -8  -2  328.07   14.20
   0  -8  -2  313.37   13.70
   0  -8   2  295.47   13.90
   1   8  -2   82.69    4.80
  -1  -8  -2   95.59    4.90
   1   8  -2   82.59    5.10
   1  -8   2   97.09    5.40
  -1  -8  -2   89.69    5.20
   1   8  -2   84.39    5.20
  -1  -8  -2   84.99    5.40
   1  -8   2   89.89    5.50
   1  -8  -2  106.49    5.40
  -1  -8   2   87.79    5.60
   1  -8  -2   95.29    5.00
   1  -8  -2   78.49    5.20
  -1   8  -2   82.79    4.70
   1   8   2  102.49    5.30
   1   8   2   99.49    4.70
   1   8   2   95.59    5.40
  -1  -8   2   95.89    5.60
   1  -8  -2   87.99    5.20
  -1   8  -2   95.59    5.40
  -1   8  -2   92.99    5.50
   2  -8   2  247.18   11.90
   2  -8   2  245.88   12.10
   2   8  -2  252.77   11.70
   2   8  -2  228.68   11.30
  -2   8   2  241.28   11.50
  -2  -8  -2  229.08   11.90
   2   8  -2  246.38   11.50
  -2  -8  -2  237.68   11.60
   2  -8  -2  236.78   11.50
   2   8   2  246.88   11.20
  -2  -8   2  255.37   12.30
   2   8   2  263.57   11.50
   2  -8  -2  229.78   11.70
  -2   8  -2  246.08   11.10
  -2  -8   2  224.58   11.80
   2   8   2  235.78   11.50
   3   8  -2  361.36   16.80
  -3   8   2  359.76   16.40
   3   8  -2  360.56   16.90
   3  -8   2  354.96   16.60
   3  -8   2  354.86   16.90
  -3  -8  -2  389.26   17.60
   3  -8  -2  363.36   16.80
  -3  -8   2  351.06   17.00
   3  -8  -2  351.76   17.20
   3   8   2  349.17   16.60
   3   8   2  368.26   16.30
  -3   8  -2  362.46   16.60
  -3  -8   2  348.27   16.60
  -4  -8  -2  165.28    9.60
  -4   8   2  160.78    8.70
   4   8  -2  173.58    9.40
   4  -8   2  165.88    8.90
   4  -8   2  174.88    9.30
   4   8  -2  171.48    9.20
  -4   8  -2  176.38    8.90
   4  -8  -2  176.98    9.50
   4   8   2  176.58    8.90
  -4  -8   2  179.38    9.60
   4  -8  -2  186.98    9.10
   4   8   2  161.08    8.90
   5  -8   2  110.09    6.90
   5  -8   2  107.89    6.60
  -5  -8  -2  107.69    7.10
  -5   8   2  108.19    6.50
   5   8  -2  113.19    6.80
   5   8  -2  116.69    7.10
   5  -8  -2  121.29    6.50
   5   8   2  118.39    6.80
   5   8   2  114.49    6.90
  -5   8  -2  104.99    6.40
   5  -8  -2  107.49    6.90
  -5  -8   2  115.89    7.20
  -6   8   2   59.99    4.60
   6  -8   2   68.69    4.70
   6   8  -2   66.19    4.90
   6   8  -2   67.09    5.40
   6  -8   2   64.99    4.90
  -6  -8  -2   62.39    5.20
   6  -8  -2   60.79    4.90
   6   8   2   58.79    4.60
   6  -8  -2   57.09    4.40
  -6  -8   2   55.99    4.90
  -6   8  -2   63.69    4.60
   6   8   2   53.99    5.30
   7   8  -2    4.90    2.30
   7   8  -2    1.00    1.40
  -7   8   2    2.70    1.50
   7  -8   2    2.50    1.40
   7  -8   2    2.80    1.70
  -7  -8  -2    5.30    2.10
  -7   8  -2    1.40    1.40
  -7  -8   2    3.30    1.90
   7   8   2    2.00    1.40
   7   8   2    4.50    2.20
   7  -8  -2    1.80    1.70
   7  -8  -2    2.60    1.70
   8   8  -2    2.00    2.50
  -8  -8  -2    2.00    2.10
   8   8  -2    1.60    1.70
   8  -8   2    1.00    1.50
  -8   8   2    2.10    1.70
   8  -8   2    4.40    2.00
   8   8   2    3.50    1.80
  -8  -8   2    7.70    2.40
   8  -8  -2    2.40    1.80
   8   8   2    1.20    2.20
  -8   8  -2    4.80    1.80
  -9   8   2    2.80    1.60
   9   8  -2   -1.20    1.60
   9  -8   2    3.10    1.80
   9  -8   2   -0.20    1.60
  -9  -8  -2   -1.10    1.90
  -9   8  -2    0.20    1.60
  -9  -8   2    2.40    2.20
   9  -8  -2   -1.40    1.20
   9   8   2    0.90    2.00
   9   8   2    1.30    2.60
   0  -9   2    1.00    0.90
   0   9  -2   -0.10    0.90
   0  -9   2    1.20    1.00
   0  -9  -2   -0.40    0.90
   0   9  -2    0.20    0.90
   0   9  -2    0.30    0.60
   0   9   2    0.80    0.40
   0   9   2   -0.20    0.80
   0  -9  -2    0.00    1.00
   0   9   2   -0.80    0.60
   1  -9   2   10.20    1.80
   1  -9   2   18.20    2.30
   1   9  -2   12.40    1.70
  -1  -9  -2   16.60    2.20
   1   9  -2   14.50    2.20
  -1  -9  -2    8.60    1.80
   1   9  -2   12.00    1.90
  -1   9   2   10.20    1.60
  -1  -9   2   11.80    2.00
   1   9   2   15.20    2.10
  -1  -9   2   11.10    2.10
  -1   9  -2    9.20    1.90
   1   9   2   11.70    1.30
  -1   9  -2   11.10    1.90
   1   9   2   11.80    1.80
   1  -9  -2   13.00    2.10
  -1   9  -2    7.50    1.40
   1  -9  -2   15.60    2.20
   1  -9  -2   11.80    2.00
   2  -9   2    9.80    1.90
  -2  -9  -2    9.10    1.80
  -2  -9  -2    5.90    1.70
  -2   9   2    9.90    1.60
   2   9  -2    7.90    1.70
   2   9  -2   11.60    1.80
   2   9  -2   10.70    1.90
  -2   9  -2    7.80    1.70
   2  -9  -2   14.10    2.30
  -2  -9   2    6.30    1.70
  -2   9  -2   10.20    2.10
   2   9   2    8.50    1.30
  -2  -9   2    8.10    1.70
   2  -9  -2   10.00    1.80
  -2   9  -2    9.80    1.60
   3  -9   2   10.70    2.00
  -3   9   2   11.70    1.90
  -3  -9  -2   11.10    2.40
   3   9  -2   11.20    2.10
   3   9  -2   10.70    1.90
   3   9  -2    9.60    1.90
   3  -9   2    7.80    1.90
   3   9   2   11.60    1.80
  -3  -9   2   12.90    2.40
   3   9   2    9.00    1.90
   3  -9  -2   11.60    2.20
  -3  -9   2   10.80    2.10
  -3   9  -2   16.40    2.50
   3  -9  -2   14.10    2.10
   4   9  -2   18.40    2.70
  -4  -9  -2   20.90    3.10
  -4   9   2   17.50    2.50
   4  -9   2   18.70    2.70
   4  -9   2   18.50    2.80
   4   9  -2   16.50    2.70
  -4  -9   2   20.30    3.00
   4   9   2   18.50    2.50
   4   9   2   18.90    2.80
   4  -9  -2   17.60    2.80
   4  -9  -2   20.10    2.60
  -4   9  -2   20.10    2.50
  -5  -9  -2   21.30    3.20
   5   9  -2   20.90    3.00
   5   9  -2   27.70    3.60
   5  -9   2   26.50    3.60
   5  -9   2   29.00    3.40
  -5   9   2   26.50    3.10
   5  -9  -2   24.10    3.40
  -5   9  -2   28.70    3.20
  -5  -9   2   22.60    3.40
   5  -9  -2   26.20    3.10
   5   9   2   18.80    2.80
   5   9   2   24.50    3.30
  -6  -9  -2    3.40    1.90
   6   9  -2    2.40    1.40
   6   9  -2    2.20    1.80
   6  -9   2    2.70    1.60
   6  -9   2    1.40    1.40
  -6   9   2    3.30    1.60
   6   9   2    3.90    1.70
   6  -9  -2    1.90    1.40
   6  -9  -2    2.10    1.50
  -6   9  -2    1.90    1.40
  -6  -9   2    1.40    1.40
   6   9   2    2.90    1.90
   7   9  -2   19.60    3.70
   7  -9   2   17.10    2.90
   7   9  -2   17.50    3.00
  -7   9   2   23.00    3.20
   7  -9   2   19.90    3.30
  -7  -9  -2   18.20    3.50
   7  -9  -2   25.20    3.70
   7   9   2   20.70    3.70
  -7   9  -2   17.90    3.00
   7   9   2   20.20    3.20
  -7  -9   2   21.60    3.70
  -8   9   2   11.80    2.60
   8  -9   2   15.20    3.20
  -8  -9  -2   16.00    3.40
   8   9  -2   11.70    3.60
   8   9  -2    9.50    2.50
   8  -9   2   14.40    2.80
   8  -9  -2    9.90    2.60
  -8  -9   2   15.20    3.30
   8   9   2    7.90    2.60
   8   9   2   13.50    3.40
  -8   9  -2   15.70    2.90
   9  -9   2   17.30    3.50
  -9  -9  -2   20.70    3.90
   9  -9   2   22.20    3.70
   9   9  -2   23.70    5.20
   9   9  -2   14.90    3.40
  -9   9   2   18.60    3.40
   9   9   2   19.40    4.50
  -9  -9   2   18.60    3.90
  -9   9  -2   19.10    3.40
   9   9   2   12.70    3.30
   9  -9  -2   21.20    3.80
   0  10  -2  120.49    6.90
   0 -10   2  130.99    7.60
   0  10   2  132.29    6.30
   0 -10   2  131.29    7.70
   0  10  -2  127.59    7.70
   0  10  -2  146.59    7.80
   0 -10  -2  148.79    7.90
   0 -10  -2  136.89    7.60
   0  10   2  132.69    7.40
   0  10   2  152.38    7.90
  -1 -10  -2   81.29    5.10
   1  10  -2   75.69    4.50
   1 -10   2   75.29    5.20
  -1 -10  -2   73.79    5.20
   1  10  -2   82.39    5.20
   1  10  -2   61.79    4.60
   1 -10  -2   72.29    4.80
   1  10   2   86.49    5.10
  -1  10  -2   61.99    4.90
   1  10   2   73.59    4.10
   1  10   2   78.59    5.00
  -1 -10   2   66.99    5.10
   1 -10  -2   63.59    4.80
  -1 -10   2   72.09    5.10
  -1  10  -2   74.69    5.00
  -1  10  -2   68.99    4.30
   2  10  -2  234.28   11.50
   2 -10   2  238.88   12.10
  -2 -10  -2  253.97   12.40
  -2 -10  -2  238.48   12.00
   2  10  -2  236.18   11.90
   2  10  -2  236.88   11.70
  -2 -10   2  234.98   12.30
  -2 -10   2  230.68   12.00
  -2  10  -2  222.88   12.00
  -2  10  -2  233.18   12.30
   2  10   2  237.88   11.10
  -2  10  -2  222.18   11.20
   2 -10  -2  245.08   11.90
   2 -10  -2  222.38   12.00
   3 -10   2   68.09    5.30
  -3 -10  -2   75.39    5.60
   3  10  -2   76.39    4.90
  -3  10   2   70.89    4.70
   3 -10   2   74.29    5.10
  -3 -10   2   86.79    5.90
   3  10   2   71.09    5.00
  -3  10  -2   57.59    4.40
  -3 -10   2   81.39    5.40
   3 -10  -2   75.59    5.40
   3  10   2   68.29    4.60
  -3  10  -2   72.59    5.50
   3 -10  -2   71.99    4.90
  -3  10  -2   77.29    5.40
  -4  10   2   92.09    5.70
   4 -10   2   89.39    6.00
   4  10  -2  101.19    6.40
   4 -10   2  101.49    6.60
   4  10  -2   91.19    6.30
  -4 -10  -2   97.19    6.90
   4  10   2   86.09    5.80
   4 -10  -2   95.19    6.60
  -4 -10   2   96.49    6.70
   4 -10  -2   96.39    6.10
   4  10   2   93.99    6.10
  -5  10   2    1.10    1.30
   5 -10   2    5.10    1.70
  -5 -10  -2    1.90    1.80
   5 -10   2    1.30    1.20
   5  10  -2    2.40    1.60
   5  10  -2    2.80    2.00
   5 -10  -2    2.50    1.50
   5  10   2    4.40    1.70
   5  10   2    1.30    1.60
  -5 -10   2    0.70    1.60
   5 -10  -2    1.20    1.40
  -6 -10  -2   28.30    4.50
   6 -10   2   35.10    4.00
  -6  10   2   35.80    3.90
   6 -10   2   31.90    4.10
   6  10  -2   37.30    4.70
   6  10  -2   39.70    4.50
   6 -10  -2   42.50    6.30
  -6  10  -2   44.90    4.50
   6  10   2   35.70    4.10
   6 -10  -2   40.90    4.80
  -6 -10   2   31.40    4.30
   6  10   2   32.60    4.40
  -7  10   2    6.00    2.00
  -7 -10  -2    4.60    2.10
   7 -10   2    2.40    1.80
   7  10  -2    5.50    2.10
   7 -10   2    4.40    1.90
   7  10  -2    2.60    2.60
  -7 -10   2    3.30    2.20
   7  10   2    4.30    2.00
   7 -10  -2    2.80    1.70
   7  10   2    2.70    2.20
  -7  10  -2    3.10    1.90
   8  10  -2   11.70    4.30
   8 -10   2   15.80    3.10
  -8  10   2   10.30    2.70
  -8 -10  -2   13.10    3.00
   8 -10   2   10.20    2.60
   8  10  -2   10.60    2.80
   8  10   2   14.10    3.10
   8 -10  -2   11.90    2.90
   8  10   2   18.10    4.10
  -8 -10   2   15.60    3.40
  -8  10  -2   12.30    2.80
   0  11   2    0.20    1.00
   0 -11  -2   -0.40    1.20
   0  11  -2   -0.10    1.10
   0  11   2    0.20    1.10
   0  11  -2    0.20    1.10
   0 -11   2    0.30    1.20
   0 -11  -2   -0.70    1.00
   0  11  -2   -0.10    0.80
   0  11   2    0.00    0.60
  -1  11   2    5.30    1.80
   1 -11   2    2.80    1.50
  -1  11   2    4.00    0.90
  -1  11   2    4.10    1.80
  -1 -11  -2    3.50    1.70
   1  11  -2    2.80    1.50
  -1 -11  -2    1.40    1.40
   1  11  -2    3.80    1.20
   1  11  -2    4.40    1.50
  -1 -11   2    5.30    1.70
   1 -11  -2    3.80    1.70
  -1  11  -2    5.10    1.70
   1  11   2    3.00    0.90
  -1  11  -2    3.70    1.60
  -1  11  -2    3.40    1.10
  -1 -11   2    3.10    1.70
   2  11  -2   13.30    2.20
   2  11  -2   15.00    2.60
  -2 -11  -2   13.10    2.70
  -2 -11  -2   11.70    2.30
   2 -11   2   10.90    2.20
   2  11  -2   15.90    2.60
  -2 -11   2   12.30    2.30
  -2  11  -2   16.80    2.20
   2 -11  -2   10.60    2.20
   2 -11  -2   11.00    2.40
  -2 -11   2   13.00    2.60
  -2  11  -2    8.90    2.20
  -2  11  -2   17.80    2.90
   2  11   2   16.00    2.10
   3 -11   2   20.30    3.00
   3  11  -2   17.60    2.70
  -3 -11  -2   21.30    3.50
   3 -11  -2   22.40    3.00
   3 -11  -2   22.10    3.20
  -3  11  -2   20.50    2.60
  -3 -11   2   21.20    3.20
  -3  11  -2   20.30    3.10
  -3  11  -2   22.70    3.40
   3  11   2   23.20    2.70
   3  11   2   21.00    3.10
  -3 -11   2   17.50    3.20
   4 -11   2    7.20    2.40
   4  11  -2    8.10    2.20
  -4 -11  -2    2.70    1.90
   4  11  -2    9.00    2.20
   4 -11   2    5.30    1.90
   4 -11  -2    5.30    2.10
  -4  11  -2    6.90    2.40
  -4  11  -2    6.00    1.70
   4 -11  -2    3.40    1.60
  -4 -11   2    9.20    2.70
   4  11   2    6.00    1.80
   4  11   2    8.00    2.00
  -4  11  -2    7.60    2.10
   5 -11   2   10.40    2.40
  -5 -11  -2   12.00    3.00
   5 -11   2   14.30    3.10
  -5  11   2   12.70    2.50
   5  11  -2    8.30    2.40
   5  11  -2   17.20    3.20
   5 -11  -2   13.50    2.90
   5 -11  -2   13.00    2.60
  -5 -11   2   17.00    3.40
   5  11   2   12.10    2.70
   5  11   2   15.20    2.90
   6  11  -2    4.80    2.20
  -6  11   2    0.40    1.60
   6 -11   2    5.50    2.10
   6 -11   2    4.10    2.00
   6  11  -2    7.60    2.80
  -6 -11  -2    3.50    2.30
  -6 -11   2    1.30    2.20
   6 -11  -2    2.50    2.20
   6  11   2    6.70    2.20
   6  11   2    3.00    2.20
   7  11  -2   38.00    4.70
   7  11  -2   46.60    5.80
   7 -11   2   35.70    4.40
   7 -11   2   42.90    5.30
  -7 -11  -2   28.50    4.60
  -7  11   2   41.10    4.80
   7  11   2   34.40    4.40
  -7 -11   2   39.30    5.20
   7  11   2   38.20    5.30
   7 -11  -2   36.30    4.80
   0  12  -2  107.89    6.10
   0  12  -2   99.19    6.90
   0 -12   2  114.29    7.30
   0  12  -2  100.69    6.70
   0  12   2  123.59    7.20
   0  12   2   99.69    7.00
   0  12   2  113.39    5.80
   0 -12  -2  108.59    6.90
   1  12  -2   18.60    3.00
  -1  12   2   18.30    3.00
  -1  12   2   25.90    3.40
   1 -12   2   16.40    3.00
   1  12  -2   16.80    3.00
   1  12  -2   15.90    2.40
  -1  12   2   18.30    1.90
  -1 -12  -2   16.90    3.20
  -1 -12  -2   19.80    3.10
  -1 -12   2   20.00    3.20
  -1  12  -2   14.90    2.80
   1 -12  -2   15.80    2.80
  -1  12  -2   23.90    3.50
  -1  12  -2   17.00    2.30
  -1 -12   2   21.00    3.30
   1  12   2   14.80    2.00
   2  12  -2   71.49    5.00
  -2 -12  -2   67.39    5.30
  -2 -12  -2   71.59    5.70
   2 -12   2   64.49    5.40
  -2  12   2   70.99    5.50
  -2  12   2   84.49    6.10
  -2  12   2   71.69    4.30
  -2 -12   2   75.29    5.80
   2  12   2   75.59    5.70
  -2 -12   2   79.39    5.90
   2 -12  -2   67.19    5.10
  -2  12  -2   70.89    5.70
  -2  12  -2   64.79    4.60
   2  12   2   72.49    4.60
  -2  12  -2   63.39    5.30
   3 -12   2    5.50    2.10
  -3 -12  -2    7.80    2.60
   3  12  -2    5.60    2.00
   3  12  -2    6.30    1.80
   3  12   2    5.60    1.60
  -3 -12   2    6.20    2.30
  -3  12  -2    3.40    1.90
  -3  12  -2    7.50    2.50
   3  12   2    1.80    1.60
   3 -12  -2    2.90    2.00
   3 -12  -2    5.20    1.90
  -3  12  -2    3.00    1.70
   4 -12   2   47.80    4.80
   4  12  -2   41.70    4.60
   4  12  -2   43.90    4.70
  -4 -12  -2   42.00    5.10
   4 -12  -2   47.10    5.30
   4 -12  -2   35.60    4.20
  -4  12  -2   35.30    4.70
  -4 -12   2   34.10    4.80
   4  12   2   50.19    5.10
   4  12   2   43.00    4.30
  -4  12  -2   36.50    4.50
  -4  12  -2   35.70    4.00
   5  12  -2    8.50    2.70
   5 -12   2    2.20    1.80
   5  12  -2    2.70    1.50
  -5 -12  -2    6.20    2.60
  -5  12  -2    2.80    2.20
  -5  12  -2    0.40    1.60
  -5  12  -2    7.10    2.10
   5  12   2    4.30    1.80
   5  12   2    6.20    2.20
   5 -12  -2    0.20    1.60
  -5 -12   2    2.60    2.20
   6 -12   2   17.60    3.70
   6 -12   2   23.70    3.70
  -6 -12  -2   25.90    4.60
   6  12  -2   22.90    4.30
   6  12  -2   23.20    4.00
   6  12   2   25.80    3.90
  -6 -12   2   26.50    4.70
  -6  12  -2   16.40    3.50
  -6  12  -2   27.10    4.60
   6 -12  -2   20.00    4.00
  -6  12  -2   23.20    4.10
   6  12   2   22.10    4.10
   0  13   2   -0.20    0.90
   0  13  -2   -0.70    1.60
   0  13  -2    2.10    1.80
   0 -13  -2    0.90    1.60
   0  13  -2   -0.80    1.20
   0 -13   2   -0.20    1.70
   1  13  -2    2.40    1.50
   1 -13   2    2.90    1.90
  -1  13   2    5.00    2.20
  -1  13   2    4.00    1.20
  -1 -13  -2    0.50    1.70
  -1  13   2    1.20    1.80
  -1  13  -2    3.70    1.80
  -1 -13   2    4.00    2.00
  -1  13  -2    2.40    1.80
  -1  13  -2    3.30    1.50
   1  13   2    3.30    1.30
   1 -13  -2    3.20    1.80
  -2 -13  -2    7.50    2.50
  -2  13   2    8.20    2.40
   2  13  -2    7.60    2.00
  -2  13   2    8.90    2.80
   2 -13   2    8.50    2.50
  -2  13   2    9.30    1.80
   2  13   2    8.90    1.90
  -2  13  -2   11.10    2.80
  -2 -13   2    9.20    2.80
  -2  13  -2   12.20    2.60
  -2 -13   2   10.80    2.60
  -2  13  -2   11.00    2.20
   2 -13  -2   10.00    2.50
   2  13   2   14.10    2.80
  -3  13   2    5.00    2.30
  -3  13   2    2.60    1.30
   3  13  -2    1.80    1.50
   3 -13   2    3.60    2.10
  -3  13   2    1.90    1.60
   3  13  -2    2.10    1.60
  -3 -13  -2    1.30    2.00
   3  13   2    1.20    1.40
  -3 -13   2   -0.20    1.80
   3  13   2    3.80    1.90
   3 -13  -2    5.40    2.20
  -3  13  -2    3.20    1.60
  -3  13  -2    2.20    2.00
  -3  13  -2    5.90    2.70
  -4 -13  -2   22.20    4.30
   4 -13   2   26.40    3.80
   4  13  -2   21.80    3.50
   4  13  -2   26.70    3.90
  -4 -13   2   25.90    4.20
  -4  13  -2   32.40    4.50
   4  13   2   25.40    3.40
   4  13   2   27.70    4.10
  -4  13  -2   29.50    3.60
  -4  13  -2   22.30    3.80
   4 -13  -2   25.90    4.30
   5 -13   2   -0.10    2.00
  -5 -13  -2   -0.10    2.40
   5  13  -2   -1.60    2.40
   5  13  -2    0.60    1.40
  -5  13  -2    0.00    1.70
   5 -13  -2    0.50    2.20
  -5 -13   2    2.20    2.70
  -5  13  -2    1.10    1.50
   5  13   2   -0.70    1.40
   5  13   2   -0.90    1.60
  -5  13  -2    0.30    1.80
   0  14   2   17.00    2.30
   0 -14   2   20.90    3.70
   0  14  -2   20.60    3.90
   0  14  -2   16.30    3.50
   0 -14  -2   22.20    3.60
   0  14  -2   19.00    2.80
   1  14  -2   10.80    2.30
   1 -14   2   12.30    2.90
  -1 -14  -2   17.80    3.30
  -1  14   2    9.20    1.80
   1 -14  -2   15.70    3.10
  -1 -14   2   11.90    2.90
  -1  14  -2   12.40    3.20
   1  14   2   15.00    2.20
  -1  14  -2    7.50    2.60
  -1  14  -2    7.10    2.10
  -2  14   2   13.20    3.00
  -2  14   2    9.40    1.90
  -2  14   2   13.50    3.30
   2  14  -2    9.60    2.40
   2 -14   2   11.40    3.10
  -2 -14  -2   11.70    3.40
  -2 -14   2    8.30    2.80
   2  14   2   11.80    2.20
   2  14   2   14.40    2.90
  -2  14  -2   11.90    3.40
  -2  14  -2   14.70    3.40
   2 -14  -2    7.60    2.80
  -2  14  -2   11.40    2.30
  -3  14   2    7.80    2.50
   3  14  -2    9.90    2.70
  -3 -14  -2    8.70    3.30
   3  14  -2    6.40    2.30
  -3  14   2    9.70    3.10
   3 -14   2    8.70    3.00
  -3  14   2    8.10    1.90
  -3  14  -2    8.40    2.60
   3  14   2    7.20    2.00
  -3 -14   2    5.00    2.70
  -3  14  -2    8.40    2.70
   3  14   2    5.20    2.20
  -3  14  -2    7.70    2.10
   3 -14  -2    7.40    3.40
  -1   0  -3    0.60    0.30
  -1   0   3    0.60    0.40
   1   0  -3    0.40    0.30
   1   0   3    0.40    0.40
   2   0   3   88.19    4.40
   2   0   3   94.99    4.60
  -2   0  -3   99.89    4.60
  -2   0  -3   94.89    4.60
  -2   0   3   91.19    4.40
   2   0  -3   96.79    4.60
   2   0  -3  100.19    4.70
  -3   0  -3    0.30    0.40
  -3   0   3    0.10    0.40
   3   0   3    0.30    0.40
   3   0  -3    0.00    0.30
  -3   0  -3    0.30    0.40
   3   0   3   -0.10    0.60
  -3   0   3   -0.40    0.30
   3   0   3    0.80    0.40
   3   0  -3   -0.30    0.40
   4   0  -3  171.58    8.30
  -4   0   3  170.78    8.00
   4   0   3  171.18    7.80
   4   0  -3  167.68    7.80
   4   0   3  168.08    8.10
  -4   0  -3  165.08    7.60
   4   0   3  176.38    8.60
  -4   0  -3  160.88    7.80
   4   0  -3  154.58    7.60
  -4   0   3  169.08    8.00
  -5   0   3    0.10    0.50
  -5   0  -3   -0.20    0.50
  -5   0   3    0.60    0.70
   5   0   3   -1.00    0.60
   5   0  -3   -0.10    0.50
   5   0  -3    0.50    0.60
   5   0   3   -0.50    0.50
   5   0   3   -1.50    0.90
   5   0  -3    0.80    1.10
  -5   0  -3    0.40    0.70
   6   0   3  155.18    8.20
   6   0  -3  160.58    7.90
   6   0   3  162.28    9.00
  -6   0  -3  157.08    7.70
   6   0   3  163.08    7.80
  -6   0   3  161.98    8.20
   6   0  -3  156.68    8.00
  -6   0  -3  154.48    8.10
  -6   0   3  166.48    8.10
  -7   0  -3   -0.70    0.90
   7   0  -3   -0.80    0.80
  -7   0   3   -0.30    1.00
   7   0   3    1.50    1.10
   7   0  -3   -0.40    0.90
  -8   0  -3  162.28    8.80
   8   0  -3  154.88    8.40
   8   0   3  147.29    8.40
   8   0  -3  154.88    8.50
  -8   0   3  152.88    8.30
  -9   0   3   -0.50    1.30
  -9   0  -3    0.40    1.40
   9   0  -3    0.80    1.40
   9   0   3    0.40    1.20
  10   0   3    2.20    1.80
 -10   0   3    0.90    1.60
  10   0  -3   -1.00    1.50
 -10   0  -3   -0.40    1.50
 -11   0  -3   -0.30    1.70
 -11   0   3   -1.50    1.80
  11   0   3    2.20    2.00
   0   1  -3  268.37   11.30
   0  -1  -3  259.87   11.30
   0   1   3  244.88   10.50
   0   1  -3  246.18   11.30
  -1  -1  -3 1839.82   76.39
   1   1  -3 1896.21   76.39
  -1   1   3 1868.11   79.19
   1  -1   3 1859.31   79.19
  -1  -1  -3 1750.32   76.29
   1  -1  -3 1917.21   76.39
  -1   1  -3 1829.92   76.69
  -1   1  -3 1771.52   76.29
  -1   1  -3 1798.92   76.29
   1  -1  -3 1782.02   76.29
   1   1   3 1892.21   79.19
  -1   1  -3 1819.02   76.29
  -1  -1   3 1911.11   79.39
   1   1   3 1935.91   79.29
   2   1  -3  724.53   29.70
   2  -1   3  662.43   28.60
   2  -1   3  661.53   28.70
  -2   1   3  719.23   28.60
   2   1  -3  679.43   29.40
   2   1  -3  675.43   29.30
  -2  -1  -3  715.73   29.50
  -2  -1  -3  706.33   29.50
  -2   1   3  696.23   28.70
  -2  -1   3  661.03   28.80
  -2  -1   3  633.94   28.40
   2  -1  -3  663.13   29.50
   2   1   3  676.53   28.60
  -2   1  -3  683.33   29.40
   2   1   3  680.43   28.80
  -3   1   3   51.59    2.90
   3   1  -3   50.09    3.20
   3  -1   3   54.99    3.00
   3  -1   3   49.30    2.80
   3   1  -3   52.09    2.90
  -3  -1  -3   49.80    2.90
  -3   1   3   54.49    2.80
   3   1  -3   49.20    2.70
  -3  -1  -3   51.09    2.90
  -3  -1   3   53.99    2.80
   3   1   3   53.49    3.30
  -3  -1   3   56.69    3.10
   3  -1  -3   53.79    3.00
   3  -1  -3   51.69    2.70
  -3   1  -3   47.10    2.90
   3   1   3   49.40    2.90
  -4   1   3   44.40    2.50
   4  -1   3   36.10    2.60
  -4   1   3   40.10    2.60
   4  -1   3   38.10    3.10
   4   1  -3   44.20    2.70
   4   1  -3   44.70    2.60
  -4  -1  -3   42.60    2.70
   4  -1   3   37.90    2.40
  -4  -1  -3   38.10    2.60
   4   1  -3   45.30    3.10
  -4  -1   3   36.90    2.60
   4   1   3   42.60    3.10
   4   1   3   41.60    2.20
   4  -1  -3   42.20    2.70
  -4   1  -3   43.10    2.40
  -4   1  -3   37.40    2.60
  -4  -1   3   41.10    2.50
   4   1   3   44.70    2.70
   4  -1  -3   38.90    2.50
   5  -1   3   62.29    3.80
   5   1  -3   64.09    4.20
  -5   1   3   59.59    3.40
  -5   1   3   62.49    3.70
   5   1  -3   55.89    3.50
   5  -1   3   56.79    3.40
   5   1  -3   63.19    3.60
  -5  -1  -3   61.19    3.70
   5  -1   3   72.89    4.50
  -5  -1  -3   61.49    3.60
   5   1   3   60.09    3.20
  -5  -1   3   56.49    3.50
   5   1   3   63.19    4.30
  -5  -1   3   54.49    3.60
   5  -1  -3   54.09    3.60
  -5   1  -3   58.19    3.70
   5   1   3   59.69    3.80
  -5   1  -3   63.69    3.30
   5  -1  -3   60.79    3.50
  -6   1   3   80.69    5.00
   6  -1   3   90.09    5.20
   6   1  -3   91.29    5.10
   6   1  -3   87.29    5.00
  -6  -1  -3   88.49    5.20
   6   1  -3   95.09    6.50
  -6   1   3   83.19    4.70
   6  -1   3   89.19    4.80
  -6  -1  -3   89.29    5.10
  -6  -1   3   85.89    5.00
   6  -1  -3   90.79    5.20
   6   1   3   96.49    5.90
   6  -1  -3   86.59    5.00
  -6  -1   3   91.79    5.00
  -6   1  -3   97.79    5.40
   6   1   3   83.99    5.10
   7   1  -3  186.18    9.90
   7  -1   3  204.48    9.70
   7   1  -3  216.18   10.00
  -7  -1  -3  192.28   10.10
  -7   1   3  192.08   10.00
   7  -1   3  202.48   10.10
  -7  -1   3  195.58    9.90
  -7   1  -3  196.18   10.20
   7  -1  -3  198.18   10.10
  -7  -1   3  195.88    9.90
   7   1   3  189.08   10.00
   7  -1  -3  210.38   10.00
   8   1  -3   -1.80    0.90
  -8  -1  -3    1.80    1.30
   8  -1   3    2.80    1.50
  -8   1   3    3.20    1.40
   8  -1  -3    1.80    1.20
   8  -1  -3   -0.30    1.00
  -8  -1   3    3.00    1.30
  -8   1  -3    3.00    1.30
   8   1   3    0.80    1.10
  -9   1   3   14.70    2.70
   9   1  -3   13.20    2.50
  -9  -1  -3   17.10    2.90
   9  -1   3   14.00    2.50
  -9  -1   3   15.80    2.70
   9   1   3   15.40    2.70
  -9   1  -3   16.50    2.90
   9  -1  -3   13.50    2.40
  10  -1   3    7.90    2.40
 -10   1   3   11.40    2.70
 -10  -1  -3   14.70    2.90
  10   1  -3   12.10    2.60
 -10   1  -3    7.60    2.50
  10   1   3   11.30    2.70
 -10  -1   3   10.60    2.60
  10  -1  -3   11.40    2.70
 -11   1   3    5.50    2.60
 -11  -1  -3    5.00    2.50
  11  -1   3    6.20    2.40
 -11  -1   3    1.90    2.20
  11   1   3    3.20    2.20
 -11   1  -3    7.40    2.60
   0   2  -3    0.20    0.40
   0  -2  -3    0.40    0.40
   0   2  -3    0.60    0.40
   0  -2   3    0.30    0.30
   0   2  -3    0.10    0.30
   0  -2   3   -0.30    0.30
   0  -2  -3    0.10    0.40
   1  -2   3   94.49    4.40
  -1  -2  -3   98.49    4.50
   1   2  -3   92.19    4.60
  -1  -2  -3   98.99    4.70
  -1   2   3   92.59    4.30
  -1   2   3   90.19    4.10
   1   2  -3   95.19    4.60
  -1   2  -3   95.69    4.60
   1   2   3   91.69    4.30
   1  -2  -3   96.99    4.50
  -1   2  -3   91.39    4.30
   1  -2  -3   90.49    4.50
  -1   2  -3   96.79    4.50
  -1  -2   3   93.89    4.30
   1   2   3   85.39    4.20
  -2   2   3  403.36   16.90
   2   2  -3  380.66   17.00
   2   2  -3  380.46   17.20
   2  -2   3  397.46   17.10
  -2  -2  -3  400.86   17.00
  -2   2   3  377.56   17.10
  -2  -2  -3  406.26   17.20
   2  -2   3  406.06   17.10
   2   2  -3  392.66   16.90
   2  -2  -3  410.66   16.70
   2  -2  -3  357.96   17.00
  -2  -2   3  405.36   17.30
  -2   2  -3  397.66   16.90
   2   2   3  376.86   17.00
   2   2   3  385.76   17.10
   3   2  -3  109.89    5.40
   3  -2   3  109.09    5.50
   3   2  -3  113.79    5.50
  -3   2   3  117.39    5.20
  -3  -2  -3  106.59    5.40
   3  -2   3  107.69    5.40
  -3   2   3  114.69    5.50
   3   2  -3  111.19    5.80
  -3  -2  -3  110.79    5.60
   3   2   3  111.59    5.50
   3  -2  -3  119.89    5.70
  -3  -2   3  109.39    5.20
  -3  -2   3  107.59    5.60
  -3   2  -3  109.89    5.50
   3  -2  -3  112.59    5.30
   3   2   3  111.89    5.80
  -4   2   3   70.99    4.10
   4   2  -3   72.79    3.90
  -4  -2  -3   71.79    3.90
   4   2  -3   72.29    3.80
   4  -2   3   74.79    4.20
  -4  -2  -3   67.29    4.00
  -4   2   3   78.29    3.80
   4  -2   3   76.29    4.10
   4   2  -3   68.79    4.30
   4  -2  -3   72.29    3.70
   4  -2  -3   64.69    4.00
   4   2   3   77.39    4.60
  -4  -2   3   74.29    4.30
   4   2   3   78.59    4.30
  -4   2  -3   65.19    3.90
  -4  -2   3   70.39    3.90
   5   2  -3    4.30    1.00
   5  -2   3    3.40    0.90
  -5  -2  -3    2.70    1.00
  -5   2   3    5.70    1.20
   5   2  -3    7.30    1.70
  -5   2   3    4.90    0.90
  -5  -2  -3    4.60    1.00
   5  -2   3    4.40    1.10
   5   2  -3    6.90    1.20
   5   2   3    5.50    1.50
  -5   2  -3    4.40    1.10
   5  -2  -3    4.80    1.20
   5  -2  -3    6.40    1.10
  -5  -2   3    5.60    1.10
   5   2   3    6.40    1.30
  -5  -2   3    4.10    1.10
   6   2  -3  102.69    5.40
   6  -2   3  104.39    5.60
   6   2  -3  107.69    6.40
   6   2  -3   98.89    5.50
  -6  -2  -3  100.49    5.60
  -6   2   3  103.29    5.80
   6  -2   3   96.39    5.70
  -6  -2  -3   98.59    5.60
   6   2   3  106.79    6.50
  -6   2  -3   91.79    5.60
   6  -2  -3   89.99    5.60
   6   2   3   94.69    5.70
   6  -2  -3  100.49    5.40
  -6  -2   3   97.89    5.50
  -6  -2   3  103.69    5.80
  -7  -2  -3   20.20    2.50
   7  -2   3   16.00    2.10
   7   2  -3   18.60    2.30
  -7  -2  -3   17.80    2.50
   7  -2   3   14.00    2.20
  -7   2   3   15.20    2.20
   7   2  -3   20.40    2.40
  -7   2  -3   17.90    2.60
   7  -2  -3   20.80    2.60
   7  -2  -3   16.60    2.20
  -7  -2   3   18.50    2.30
   7   2   3   17.60    2.50
  -7  -2   3   17.20    2.30
   7   2   3   21.80    3.40
   8   2  -3   76.39    4.90
  -8   2   3   68.29    5.10
  -8  -2  -3   67.89    4.80
   8  -2   3   73.19    5.10
   8  -2  -3   59.69    4.70
  -8   2  -3   68.59    5.10
  -8  -2   3   73.69    5.10
   8   2   3   68.49    4.90
   8  -2  -3   73.99    4.70
  -8  -2   3   75.79    4.90
  -9   2   3    3.40    1.60
   9  -2   3    0.10    1.30
   9   2  -3    2.50    1.40
  -9  -2  -3    3.70    1.70
  -9  -2   3    1.20    1.30
   9   2   3    0.00    1.30
   9  -2  -3    4.90    1.80
   9  -2  -3    2.70    1.60
  -9   2  -3    2.40    1.60
 -10  -2  -3    3.00    1.90
  10  -2   3    2.00    1.70
 -10   2   3    2.10    1.90
  10   2  -3    1.50    1.80
  10   2   3    1.00    1.80
 -10   2  -3    4.00    1.90
 -10  -2   3   -0.30    1.60
  11  -2   3    9.70    2.90
  11   2  -3    5.60    2.50
 -11  -2  -3    5.50    2.50
 -11   2   3    7.70    2.80
  11   2   3    5.50    2.60
 -11   2  -3    3.70    2.50
   0  -3  -3  107.99    5.10
   0  -3  -3  122.49    5.40
   0   3  -3  106.09    5.20
   0  -3  -3  106.59    5.20
   0  -3   3  100.09    4.80
   0   3  -3  101.49    5.20
   0  -3   3  100.39    4.80
   0  -3  -3  114.79    5.10
   1   3  -3   40.80    2.60
   1   3  -3   49.30    2.70
  -1  -3  -3   47.60    2.60
   1  -3   3   45.50    2.30
   1   3  -3   41.00    2.60
  -1  -3  -3   49.50    2.80
   1   3   3   44.40    2.40
  -1   3  -3   45.00    2.60
   1   3   3   44.10    2.10
   1   3   3   41.80    2.10
  -1   3  -3   41.60    2.60
  -1   3  -3   47.60    2.70
   1  -3  -3   57.19    2.70
   1  -3  -3   44.30    2.40
  -1   3  -3   46.70    2.40
   1  -3  -3   46.60    2.60
  -1  -3   3   41.20    2.60
   1  -3  -3   53.99    2.70
   2  -3   3  493.35   21.20
  -2   3   3  497.65   21.20
  -2  -3  -3  494.55   22.50
   2  -3   3  444.46   21.20
   2   3  -3  500.95   22.40
   2   3  -3  496.05   22.20
  -2   3   3  505.55   20.90
  -2  -3  -3  552.64   22.20
  -2  -3   3  492.75   21.10
   2  -3  -3  519.85   22.00
   2   3   3  470.85   21.00
  -2   3  -3  487.35   22.10
   2   3   3  504.05   21.10
  -2  -3   3  497.05   21.30
   2  -3  -3  552.44   22.40
   3   3  -3  117.89    6.10
   3  -3   3  119.79    5.90
  -3   3   3  112.69    5.80
   3   3  -3  120.79    5.80
  -3  -3  -3  105.49    5.90
   3  -3   3  117.19    5.80
   3   3  -3  119.09    5.80
  -3  -3  -3  114.39    5.70
  -3   3   3  122.59    5.40
   3   3   3  116.49    5.80
  -3  -3   3  100.19    5.90
  -3  -3   3  119.99    5.40
  -3   3  -3  114.79    5.70
   3  -3  -3  125.49    6.00
   3  -3  -3  113.89    5.50
   3   3   3  117.99    5.90
  -4  -3  -3  848.22   37.10
  -4   3   3  911.01   36.50
   4   3  -3  869.21   36.90
   4   3  -3  832.02   36.70
   4   3  -3  888.81   37.40
  -4  -3  -3  877.21   36.80
   4  -3   3  889.41   37.10
  -4   3   3  851.21   37.00
   4  -3   3  845.22   37.00
  -4  -3   3  838.92   36.60
  -4  -3   3  887.01   37.30
   4   3   3  833.92   37.30
   4  -3  -3  777.92   37.00
   4   3   3  821.72   37.00
  -4   3  -3  882.81   37.00
   4  -3  -3  888.61   36.70
   5   3  -3    5.40    1.60
   5  -3   3    7.70    1.30
  -5   3   3    7.50    1.40
   5   3  -3    3.80    1.10
  -5  -3  -3    5.80    1.30
  -5  -3  -3    5.90    1.20
   5  -3   3    4.90    1.10
   5   3  -3    5.10    1.10
  -5  -3   3    4.70    1.00
  -5  -3   3    3.50    1.10
   5   3   3    7.50    1.70
   5   3   3    6.40    1.30
   5  -3  -3    7.30    1.50
   5  -3  -3    6.50    1.10
  -5   3  -3    5.90    1.30
  -6  -3  -3   38.50    3.00
   6   3  -3   40.10    3.00
   6  -3   3   36.50    3.00
   6   3  -3   43.00    4.20
   6  -3   3   42.00    3.10
   6   3  -3   38.50    2.80
  -6  -3  -3   36.60    3.20
  -6   3   3   41.40    3.20
   6   3   3   44.60    4.30
   6  -3  -3   39.60    3.20
   6  -3  -3   40.60    2.90
   6   3   3   39.60    3.70
  -6  -3   3   31.40    3.00
  -6  -3   3   41.00    2.90
  -6   3  -3   33.70    3.00
   7  -3   3   40.00    3.20
  -7  -3  -3   34.30    3.50
  -7  -3  -3   36.10    3.30
   7  -3   3   39.90    3.40
   7   3  -3   41.40    3.30
  -7   3   3   37.60    3.70
   7   3  -3   48.90    5.60
   7  -3  -3   44.40    3.20
  -7  -3   3   35.60    3.00
  -7  -3   3   39.90    3.40
  -7   3  -3   38.70    3.40
   7   3   3   48.50    4.90
   7   3   3   38.10    3.70
   7  -3  -3   37.30    3.80
   8   3  -3    4.40    1.60
  -8  -3  -3    7.90    1.80
  -8   3   3    6.90    1.90
   8  -3   3    8.70    2.00
   8  -3   3    9.40    1.80
  -8  -3  -3    8.00    1.90
  -8   3  -3    6.20    1.80
   8   3   3    8.40    2.10
  -8  -3   3    8.00    1.80
   8  -3  -3    5.50    1.60
   8  -3  -3    6.30    1.70
  -8  -3   3    8.80    2.00
  -9   3   3   17.60    2.80
  -9  -3  -3   21.70    3.10
   9   3  -3   22.00    3.10
   9  -3   3   13.00    2.50
   9  -3  -3   18.90    3.00
  -9  -3   3   15.90    2.80
  -9   3  -3   20.40    3.40
   9  -3  -3   23.50    3.20
   9   3   3   20.70    3.00
 -10   3   3    0.00    1.60
  10  -3   3    0.20    1.60
 -10  -3  -3   -2.40    1.40
  10   3  -3   -0.20    1.50
  10   3   3    1.30    1.80
 -10   3  -3   -0.90    1.50
  11  -3   3    6.70    2.50
 -11  -3  -3    3.50    2.50
  11   3  -3    8.50    2.90
 -11   3   3    4.80    2.70
  11   3   3    5.00    2.50
 -11   3  -3    4.90    2.70
   0  -4  -3    0.30    0.50
   0   4  -3    0.10    0.40
   0   4  -3    0.10    0.50
   0  -4  -3   -0.30    0.40
   0  -4  -3    0.00    0.40
   0  -4  -3    0.10    0.40
   0  -4   3   -0.60    0.30
   0   4  -3   -0.20    0.40
   0  -4   3    0.10    0.40
   1   4  -3   26.80    1.80
  -1  -4  -3   26.80    1.80
   1   4  -3   24.40    1.90
  -1  -4  -3   26.80    2.00
   1  -4   3   24.10    1.80
  -1  -4  -3   26.00    1.60
   1  -4   3   27.80    1.70
   1   4  -3   22.90    1.80
  -1  -4   3   25.90    2.00
   1   4   3   25.40    1.30
  -1   4  -3   23.10    1.90
   1  -4  -3   28.20    1.70
   1  -4  -3   23.10    1.80
  -1  -4   3   24.40    1.80
   1  -4  -3   26.30    1.80
  -1   4  -3   26.40    1.80
   1  -4  -3   25.60    1.80
  -1   4  -3   24.30    1.50
   1   4   3   26.70    1.30
  -2   4   3   23.60    1.80
  -2  -4  -3   29.00    2.00
  -2  -4  -3   27.90    2.20
  -2   4   3   24.30    1.60
   2  -4   3   27.30    2.00
  -2   4   3   26.30    1.70
   2   4  -3   28.20    2.20
   2   4  -3   26.60    2.00
   2  -4   3   25.60    2.00
   2   4   3   27.10    1.90
  -2  -4   3   24.20    1.90
   2   4   3   27.60    1.50
   2   4   3   27.20    1.60
   2  -4  -3   27.80    2.10
   2   4   3   23.80    1.70
  -2   4  -3   26.80    1.90
   2  -4  -3   29.40    1.90
  -2  -4   3   24.30    2.00
   2  -4  -3   33.60    2.10
  -3  -4  -3   42.70    2.60
  -3  -4  -3   37.40    2.90
   3   4  -3   44.80    2.80
   3   4  -3   43.70    2.70
  -3   4   3   42.90    2.40
  -3   4   3   44.10    2.80
   3   4  -3   38.40    2.90
   3  -4   3   36.40    2.80
  -3   4  -3   38.90    2.60
   3  -4  -3   44.50    2.60
   3   4   3   43.00    2.80
   3  -4  -3   42.60    2.90
  -3  -4   3   39.80    3.00
   3   4   3   46.40    3.00
  -3  -4   3   49.70    2.40
   4  -4   3  121.19    6.20
  -4  -4  -3  122.49    6.50
   4   4  -3  129.29    6.20
  -4   4   3  119.19    6.20
  -4  -4  -3  119.39    6.00
   4  -4   3  110.09    6.20
   4   4  -3  116.99    6.60
   4   4  -3  122.19    6.00
  -4  -4   3  122.59    5.70
  -4   4  -3  120.59    6.20
  -4  -4   3  119.69    6.40
   4   4   3  118.59    6.40
   4  -4  -3  105.59    6.20
   4   4   3  111.09    6.10
   4  -4  -3  113.29    5.90
  -5  -4  -3   84.89    4.50
  -5   4   3   70.19    4.40
   5   4  -3   86.39    5.20
   5  -4   3   73.09    4.50
   5   4  -3   75.09    4.50
   5  -4   3   71.39    4.40
   5   4  -3   72.79    4.30
  -5  -4  -3   71.59    4.70
  -5  -4   3   68.99    4.60
  -5  -4   3   67.99    3.90
   5   4   3   80.29    4.60
   5   4   3   79.99    5.00
   5  -4  -3   65.69    4.60
  -5   4  -3   77.79    4.60
   5  -4  -3   74.29    4.30
   6   4  -3  226.48   11.00
   6  -4   3  218.28   11.10
  -6  -4  -3  226.18   10.90
  -6   4   3  220.68   11.10
   6   4  -3  234.18   11.90
   6  -4   3  219.78   11.10
  -6  -4  -3  214.18   11.30
   6   4  -3  225.38   10.70
  -6  -4   3  229.18   11.40
  -6   4  -3  224.38   11.10
   6   4   3  234.88   11.80
  -6  -4   3  232.08   10.60
   6   4   3  215.18   11.00
   6  -4  -3  220.28   11.20
   6  -4  -3  216.68   10.70
  -7  -4  -3    8.10    1.80
   7  -4   3    6.20    1.70
   7   4  -3    6.60    1.60
   7   4  -3    8.00    2.50
  -7  -4  -3    8.30    1.80
  -7   4   3    4.60    1.60
   7  -4   3    7.40    1.70
  -7  -4   3    6.70    1.90
   7   4   3    8.00    2.40
  -7   4  -3    3.70    1.40
   7  -4  -3    7.40    1.60
   7  -4  -3    8.10    1.70
   7   4   3    3.90    1.50
  -7  -4   3    6.50    1.50
   8  -4   3   50.79    4.30
  -8  -4  -3   60.49    4.30
  -8   4   3   52.09    4.30
   8   4  -3   60.29    4.40
  -8  -4  -3   46.30    4.20
   8  -4   3   55.39    4.20
  -8   4  -3   54.19    4.40
  -8  -4   3   51.79    4.40
   8  -4  -3   50.09    4.30
   8  -4  -3   49.20    4.00
   8   4   3   55.79    4.50
   8   4   3   52.79    5.70
  -9  -4  -3    1.00    1.40
   9  -4   3    4.00    1.90
  -9   4   3    5.20    2.10
   9   4  -3    2.30    1.50
  -9  -4   3    4.30    1.90
  -9   4  -3    1.50    1.50
   9   4   3    4.10    1.90
   9  -4  -3    2.60    1.50
 -10  -4  -3   19.40    3.30
  10   4  -3   16.80    3.20
 -10   4   3   23.00    3.70
  10  -4   3   19.80    3.50
  10  -4  -3   19.90    3.40
 -10   4  -3   16.40    3.10
  10   4   3   19.40    3.30
  11  -4   3    8.10    2.70
 -11   4   3    7.20    3.00
  11   4  -3    7.00    2.60
  11   4   3    5.90    2.80
 -11   4  -3    7.80    3.30
   0  -5  -3  146.69    6.80
   0  -5  -3  160.68    7.20
   0  -5  -3  148.59    6.80
   0  -5   3  151.68    7.00
   0  -5   3  133.49    6.80
   0  -5  -3  135.79    6.80
   0   5  -3  146.89    7.00
   0   5  -3  125.39    6.90
   0   5  -3  125.49    6.70
   0   5  -3  151.58    6.30
   1   5  -3   44.20    2.70
   1  -5   3   47.60    2.70
   1   5  -3   48.10    2.80
  -1  -5  -3   44.80    2.70
  -1  -5  -3   48.70    2.70
   1   5  -3   38.70    2.70
  -1  -5  -3   42.00    2.60
  -1  -5  -3   44.40    3.00
   1   5   3   44.30    2.10
   1  -5  -3   45.40    2.80
  -1  -5   3   42.20    2.90
  -1   5  -3   43.10    2.70
   1  -5  -3   43.50    2.60
  -1  -5   3   46.60    2.90
   1   5   3   44.00    2.10
  -1   5  -3   43.30    2.40
  -1   5  -3   40.70    2.80
   1  -5  -3   46.10    2.70
  -1   5  -3   42.10    2.90
   1  -5  -3   44.30    2.80
   2  -5   3  190.28    8.90
   2   5  -3  197.18    9.20
  -2   5   3  169.98    8.60
   2   5  -3  182.88    9.10
  -2   5   3  187.88    8.10
   2   5  -3  193.18    9.30
   2  -5   3  185.28    8.30
  -2  -5  -3  197.68    9.00
  -2  -5  -3  201.58    9.60
   2  -5   3  186.18    9.00
  -2   5  -3  207.38    9.00
   2   5   3  192.08    8.30
   2  -5  -3  195.58    9.10
  -2  -5   3  185.38    9.00
   2   5   3  176.68    8.40
   2  -5  -3  185.78    9.00
   2   5   3  175.18    8.70
  -2  -5   3  178.18    8.80
   2  -5  -3  195.88    8.90
   2   5   3  196.28    8.40
   2  -5  -3  185.98    9.30
  -3  -5  -3  201.08    9.90
  -3  -5  -3  196.88    9.30
   3  -5   3  189.68    9.70
  -3   5   3  212.28    9.40
  -3   5   3  198.28    9.60
   3   5  -3  204.38    9.50
   3   5  -3  188.88    9.70
   3   5  -3  196.88    9.60
   3  -5   3  203.98    9.70
  -3   5   3  199.98    9.10
  -3   5  -3  209.08    9.40
  -3  -5   3  200.08    9.90
   3  -5  -3  201.88    9.30
  -3  -5   3  200.18    8.90
   3   5   3  217.38    9.00
   3   5   3  190.78    9.60
   3   5   3  197.38    9.50
  -4  -5  -3  265.17   12.20
   4   5  -3  240.88   12.00
   4  -5   3  224.38   11.20
  -4  -5  -3  246.78   11.40
   4   5  -3  249.58   11.70
  -4   5   3  230.68   11.20
   4   5  -3  238.28   11.50
   4  -5   3  234.58   11.40
  -4   5  -3  234.38   11.60
   4  -5  -3  247.38   12.00
   4   5   3  235.48   11.30
   4  -5  -3  253.97   11.50
  -4  -5   3  238.98   10.60
  -4  -5   3  251.37   11.70
   4   5   3  238.98   11.40
  -5   5   3   41.70    3.20
   5  -5   3   42.50    3.20
  -5  -5  -3   46.50    3.60
  -5  -5  -3   48.00    3.20
   5  -5   3   46.10    3.40
   5   5  -3   45.70    3.80
   5   5  -3   44.40    3.10
   5   5  -3   45.70    3.30
   5  -5  -3   39.00    3.30
   5   5   3   43.60    3.60
  -5   5  -3   44.60    3.30
   5   5   3   42.30    3.30
   5  -5  -3   36.50    2.90
  -5  -5   3   42.10    3.40
   6   5  -3   23.80    2.70
  -6  -5  -3   27.80    2.80
   6  -5   3   23.70    2.90
  -6  -5  -3   22.70    3.00
  -6   5   3   24.50    2.80
   6  -5   3   24.40    2.70
   6   5  -3   26.10    3.50
  -6  -5   3   20.70    2.70
   6  -5  -3   28.60    3.20
   6  -5  -3   26.90    2.70
  -6   5  -3   22.30    2.70
   6   5   3   29.90    3.50
   6   5   3   17.10    2.40
   7   5  -3   30.50    3.30
  -7  -5  -3   26.30    3.30
  -7  -5  -3   30.00    3.10
   7  -5   3   22.80    3.00
   7  -5   3   34.70    3.50
  -7   5   3   29.10    3.20
   7   5  -3   32.40    4.10
   7  -5  -3   29.70    3.50
   7   5   3   28.90    4.00
   7   5   3   32.00    3.60
  -7   5  -3   28.80    3.30
  -7  -5   3   28.10    3.40
   7  -5  -3   32.10    3.10
   8   5  -3    4.50    1.80
  -8  -5  -3    5.70    2.00
   8  -5   3    5.00    1.70
  -8  -5  -3    9.40    2.10
  -8   5   3    9.20    2.10
   8  -5   3    6.30    1.80
  -8  -5   3    4.30    1.80
   8  -5  -3    5.60    1.90
   8   5   3   10.60    3.00
  -8   5  -3    7.20    2.00
   8  -5  -3    5.70    2.00
   8   5   3    4.20    1.80
   9  -5   3   13.00    2.70
  -9  -5  -3   15.20    4.40
   9   5  -3   14.10    2.80
   9  -5   3   11.00    2.40
  -9  -5  -3   16.60    3.00
  -9   5   3    9.20    2.40
  -9   5  -3   13.40    2.80
   9  -5  -3   11.80    2.60
   9   5   3    9.30    2.40
  -9  -5   3   12.30    2.80
 -10   5   3    5.50    2.40
  10  -5   3    5.10    2.00
  10   5  -3   12.00    2.80
  10  -5  -3    4.60    2.20
  10   5   3    6.50    2.60
 -10   5  -3    3.40    2.10
   0  -6  -3   -0.20    0.50
   0   6  -3    0.20    0.50
   0  -6   3    0.70    0.60
   0  -6   3    0.10    0.60
   0  -6  -3    0.10    0.60
   0   6  -3   -0.20    0.60
   0   6  -3    0.00    0.40
   0  -6  -3    0.40    0.60
   0   6  -3    0.60    0.60
   0  -6  -3   -0.50    0.50
   0   6  -3   -0.20    0.50
  -1  -6  -3   18.40    1.80
   1  -6   3   19.70    1.70
   1   6  -3   19.60    2.20
  -1  -6  -3   20.70    1.70
  -1  -6  -3   19.60    2.00
   1  -6   3   17.00    1.90
   1   6  -3   19.80    2.00
  -1  -6  -3   16.90    2.10
   1   6  -3   19.20    2.00
  -1   6  -3   20.80    1.50
   1   6   3   18.00    1.00
  -1   6  -3   22.90    2.40
  -1  -6   3   16.50    1.90
   1  -6  -3   21.40    2.20
   1  -6  -3   21.80    1.90
  -1  -6   3   18.00    2.10
  -1   6  -3   21.20    2.00
   1  -6  -3   18.10    1.80
  -1   6  -3   17.10    1.70
  -1   6  -3   20.40    2.20
   1  -6  -3   18.80    1.90
  -2   6   3    7.10    0.80
  -2  -6  -3    4.40    1.20
  -2  -6  -3    5.00    1.00
   2  -6   3    8.00    1.00
   2   6  -3    7.00    1.30
   2   6  -3    4.30    1.00
   2   6  -3    4.50    1.10
   2  -6   3    5.20    1.10
  -2   6   3    6.80    1.20
   2  -6   3    5.60    1.30
   2  -6  -3    7.10    1.20
   2   6   3    4.20    0.90
  -2  -6   3    6.20    1.30
   2  -6  -3    7.30    1.20
  -2  -6   3    6.00    1.30
   2   6   3    5.70    1.20
   2   6   3    8.30    1.10
  -2   6  -3    7.40    1.10
   2   6   3    7.30    1.00
   2  -6  -3    6.90    1.30
   3  -6   3   16.70    2.10
   3  -6   3   16.20    2.20
  -3   6   3   18.60    2.10
   3   6  -3   18.50    2.30
  -3  -6  -3   20.80    2.10
   3   6  -3   20.40    2.20
  -3  -6  -3   19.10    2.50
   3   6   3   17.30    2.00
   3   6   3   19.90    2.20
  -3   6  -3   20.70    2.00
   3  -6  -3   20.90    2.10
  -3  -6   3   20.80    2.50
   3  -6  -3   22.40    2.50
  -3  -6   3   19.70    2.20
  -4  -6  -3   45.70    3.80
   4   6  -3   42.20    3.20
   4   6  -3   50.09    3.80
   4  -6   3   43.00    3.30
  -4  -6  -3   50.39    3.20
  -4   6   3   44.20    3.20
   4  -6   3   46.70    3.30
   4   6  -3   49.10    3.40
   4  -6  -3   49.20    3.60
  -4  -6   3   37.60    3.30
   4   6   3   41.20    3.20
  -4   6  -3   48.10    3.30
   4   6   3   44.80    3.30
   4  -6  -3   50.69    3.30
   5  -6   3  169.58    8.70
   5   6  -3  164.78    8.90
  -5  -6  -3  173.68    8.60
  -5  -6  -3  178.48    9.40
   5  -6   3  167.38    8.90
   5   6  -3  172.58    9.10
   5   6  -3  168.88    9.40
  -5   6   3  168.28    8.70
   5  -6  -3  175.58    8.60
   5   6   3  163.38    8.70
   5   6   3  168.18    9.00
  -5   6  -3  168.38    8.80
   5  -6  -3  167.08    9.10
  -5  -6   3  162.08    9.10
   6  -6   3   48.50    3.90
  -6  -6  -3   48.10    4.20
  -6   6   3   50.09    3.90
   6  -6   3   48.20    3.80
  -6  -6  -3   53.29    3.70
   6   6  -3   47.40    4.80
   6   6  -3   54.79    3.90
   6  -6  -3   47.80    3.90
  -6  -6   3   53.09    4.30
   6   6   3   46.60    4.60
   6  -6  -3   56.59    3.70
   6   6   3   49.60    3.90
  -6   6  -3   44.50    3.70
   7   6  -3   51.49    5.50
   7   6  -3   62.09    4.50
   7  -6   3   62.69    4.70
   7  -6   3   60.09    4.60
  -7   6   3   59.39    4.60
  -7  -6  -3   53.19    4.30
  -7  -6  -3   61.09    4.80
  -7   6  -3   60.59    4.50
  -7  -6   3   64.59    5.00
   7  -6  -3   60.89    4.70
   7   6   3   60.69    4.70
   7  -6  -3   61.29    4.30
   7   6   3   70.39    5.50
  -8   6   3   21.10    3.20
   8   6  -3   28.10    4.50
   8  -6   3   21.10    3.10
   8  -6   3   20.40    3.00
   8   6  -3   21.70    3.20
  -8  -6  -3   25.90    3.70
  -8   6  -3   21.40    3.30
  -8  -6   3   19.10    3.20
   8   6   3   25.70    4.30
   8  -6  -3   25.20    3.50
   8   6   3   20.70    3.20
   9  -6   3   15.10    2.80
   9  -6   3   14.40    2.90
  -9  -6  -3   13.70    3.00
  -9   6   3   15.60    2.90
   9   6  -3   14.30    2.80
   9   6   3   11.60    2.60
   9  -6  -3   11.30    2.60
  -9   6  -3   10.60    2.50
  -9  -6   3   13.90    3.00
  10  -6   3    7.20    2.40
 -10   6   3    3.90    1.90
  10   6  -3    3.80    2.10
  10   6   3    3.60    2.30
 -10   6  -3    1.60    1.60
  10  -6  -3    8.50    2.60
 -10  -6   3    4.90    2.60
   0  -7  -3   51.19    3.30
   0  -7  -3   53.19    3.30
   0   7  -3   49.60    3.10
   0   7  -3   46.40    3.30
   0  -7  -3   54.39    3.20
   0  -7  -3   45.20    3.40
   0   7  -3   50.89    3.50
   0  -7   3   48.80    3.20
   0  -7   3   45.20    3.20
  -1  -7  -3   57.09    3.40
  -1  -7  -3   56.19    3.60
   1   7  -3   61.69    3.70
   1   7  -3   52.09    3.60
   1   7  -3   53.59    3.40
   1  -7   3   49.99    3.60
  -1  -7  -3   50.49    3.70
   1  -7   3   62.59    3.50
  -1   7  -3   55.79    3.80
  -1   7  -3   62.39    3.80
  -1   7  -3   51.19    3.30
   1   7   3   57.89    3.40
   1   7   3   54.69    2.70
   1  -7  -3   51.39    3.60
   1  -7  -3   57.69    3.50
   1   7   3   60.99    3.50
  -1   7  -3   54.09    3.10
  -1  -7   3   49.50    3.60
   1  -7  -3   56.69    3.40
   1  -7  -3   64.99    3.80
  -1  -7   3   58.89    3.80
  -2   7   3   32.30    2.50
   2  -7   3   34.90    2.50
   2   7  -3   32.60    2.70
  -2   7   3   33.30    1.80
  -2  -7  -3   39.30    2.60
   2   7  -3   38.80    2.80
   2  -7   3   31.10    2.60
   2   7  -3   32.50    2.70
   2  -7   3   32.90    2.90
  -2  -7  -3   37.40    3.20
  -2   7  -3   36.20    2.50
  -2  -7   3   33.00    2.80
   2   7   3   28.60    2.30
   2   7   3   30.20    2.30
   2  -7  -3   38.20    2.70
   2  -7  -3   38.00    2.70
  -2  -7   3   33.00    2.70
   2  -7  -3   34.90    2.90
   2   7   3   30.90    2.60
   2   7   3   30.30    2.10
  -3  -7  -3   17.10    2.50
   3   7  -3   15.80    2.10
   3  -7   3   18.00    2.20
   3   7  -3   16.80    2.20
  -3   7   3   16.20    2.00
   3  -7   3   17.40    2.30
  -3  -7  -3   18.20    2.00
  -3  -7   3   12.60    1.90
  -3  -7   3   19.90    2.60
   3   7   3   21.00    2.30
  -3   7  -3   14.20    1.80
   3   7   3   15.10    1.90
   3  -7  -3   17.90    2.00
   3  -7  -3   19.20    2.40
  -4  -7  -3  109.79    6.60
   4  -7   3   90.99    5.90
  -4  -7  -3  111.49    5.70
   4  -7   3  100.79    5.80
  -4   7   3   94.39    5.70
   4   7  -3  100.19    6.00
   4   7  -3  102.39    6.30
   4   7  -3  106.79    5.90
   4  -7  -3   98.19    5.70
   4   7   3   96.19    5.70
   4  -7  -3  103.29    6.30
   4   7   3   93.39    5.70
  -4   7  -3  102.09    5.80
  -4  -7   3  102.89    6.20
   5  -7   3    3.50    1.30
   5   7  -3    2.60    1.30
  -5   7   3    2.10    1.10
  -5  -7  -3    3.20    1.40
   5   7  -3    1.40    1.40
   5  -7   3    2.20    1.10
   5   7   3    1.90    1.20
  -5  -7   3    2.00    1.40
   5   7   3    1.50    1.40
  -5   7  -3    3.20    1.20
   5  -7  -3    2.40    1.20
   5  -7  -3    2.60    1.10
  -6  -7  -3   20.40    3.10
   6   7  -3   19.20    2.90
   6  -7   3   22.10    3.00
   6  -7   3   16.30    2.50
  -6   7   3   22.90    3.00
   6   7  -3   19.50    3.20
  -6  -7   3   17.00    2.80
   6  -7  -3   24.20    2.70
  -6   7  -3   24.90    3.00
   6   7   3   17.60    3.00
   6   7   3   17.90    2.70
   6  -7  -3   24.30    3.20
  -7   7   3   13.30    2.50
   7  -7   3   14.20    2.40
   7   7  -3    7.10    2.00
   7   7  -3   10.30    2.90
  -7  -7  -3   11.60    2.60
   7  -7   3   10.80    2.40
   7   7   3   11.00    2.60
   7   7   3   13.60    2.50
   7  -7  -3   12.30    2.50
  -7   7  -3   10.80    2.10
  -7  -7   3   10.40    2.50
   8  -7   3   18.40    3.00
  -8   7   3   19.90    3.20
   8   7  -3   16.00    3.50
  -8  -7  -3   20.60    3.40
   8  -7   3   19.40    3.10
   8   7  -3   14.50    2.70
  -8  -7   3   16.20    3.20
  -8   7  -3   19.80    3.10
   8  -7  -3   14.70    2.80
   8   7   3   19.60    3.30
   8   7   3   18.40    3.90
  -9  -7  -3    9.70    2.70
   9  -7   3    6.90    2.30
  -9   7   3    9.30    2.40
   9   7  -3    7.10    2.20
   9  -7   3    7.10    2.30
   9   7   3    8.70    3.60
  -9  -7   3    7.90    2.80
   9  -7  -3    4.00    2.10
  -9   7  -3    6.20    2.20
   9   7   3    9.70    2.60
  10  -7   3   15.40    3.30
 -10   7   3   15.00    3.30
  10   7  -3    8.00    2.80
  10  -7   3    9.10    3.40
 -10  -7  -3   11.10    3.50
 -10  -7   3   11.80    3.30
 -10   7  -3   14.70    3.10
  10   7   3   19.20    3.70
  10  -7  -3   16.70    3.20
   0  -8   3   -0.60    0.80
   0  -8  -3    0.00    0.80
   0   8  -3    0.70    1.00
   0  -8  -3   -0.80    0.60
   0   8  -3   -0.60    0.60
   0  -8  -3   -0.30    0.90
   0   8  -3    0.40    0.80
   0  -8   3   -0.90    0.70
   0  -8  -3   -0.30    0.80
   1   8  -3   19.90    2.50
   1  -8   3   19.90    2.20
   1  -8   3   16.30    2.20
   1   8  -3   15.80    2.00
  -1  -8  -3   21.10    2.30
  -1  -8  -3   20.90    2.10
   1   8  -3   16.80    2.10
  -1  -8  -3   17.70    2.50
  -1   8  -3   17.40    2.00
   1  -8  -3   23.00    2.30
   1   8   3   18.60    2.10
   1   8   3   18.60    1.30
   1  -8  -3   21.90    2.40
  -1  -8   3   18.20    2.30
   1  -8  -3   20.70    2.30
  -1  -8   3   21.30    2.50
   1  -8  -3   23.70    2.60
  -1   8  -3   21.10    2.60
   1   8   3   19.70    2.30
  -1   8  -3   17.20    2.40
  -2  -8  -3    6.90    1.70
   2   8  -3    8.00    1.60
   2  -8   3    9.90    1.70
  -2   8   3    8.70    1.00
  -2  -8  -3    5.60    1.40
   2   8  -3    6.80    1.50
  -2  -8  -3    7.80    1.40
  -2   8   3    5.80    1.30
   2   8  -3    8.70    1.60
   2   8   3    7.90    1.60
   2   8   3    8.60    1.50
  -2  -8   3    7.20    1.70
  -2  -8   3    7.50    1.60
   2   8   3    7.40    1.50
   2  -8  -3    5.40    1.50
  -2   8  -3    4.10    1.30
   2  -8  -3    6.40    1.50
  -2   8  -3    7.60    1.40
  -2   8  -3    7.00    1.70
   2  -8  -3    6.90    1.40
   2   8   3    4.80    1.00
  -2   8  -3    4.10    1.20
  -3   8   3   39.70    3.10
   3  -8   3   45.60    3.60
  -3  -8  -3   40.70    3.70
   3  -8   3   39.50    3.20
   3   8  -3   40.90    3.20
   3   8  -3   39.50    3.40
   3  -8  -3   39.30    3.90
   3   8   3   37.20    3.10
   3   8   3   39.50    2.90
  -3  -8   3   27.70    3.30
   3  -8  -3   40.20    3.10
  -3   8  -3   43.40    3.10
  -3  -8   3   36.90    3.10
   4   8  -3    5.60    1.80
   4   8  -3    7.10    2.10
   4  -8   3    8.50    1.90
   4   8  -3    5.50    1.60
  -4  -8  -3    7.80    2.10
   4  -8   3    6.80    1.60
  -4   8   3    6.60    1.50
   4  -8  -3    6.60    1.80
  -4  -8   3    8.50    1.90
   4  -8  -3    8.80    1.70
   4   8   3    6.20    1.60
  -4   8  -3    4.00    1.30
   4   8   3    8.30    1.70
  -5   8   3   37.60    3.20
   5   8  -3   43.50    4.40
   5  -8   3   33.20    3.50
  -5  -8  -3   29.10    3.70
   5  -8   3   38.90    4.10
   5   8  -3   32.50    3.50
  -5  -8   3   28.10    3.70
   5   8   3   37.60    3.90
   5  -8  -3   38.00    3.20
   5  -8  -3   33.60    3.90
  -5   8  -3   36.30    3.10
   5   8   3   34.30    3.60
  -6   8   3   47.20    3.90
  -6  -8  -3   47.00    5.00
   6   8  -3   46.10    4.80
   6  -8   3   40.90    4.10
   6   8  -3   41.40    4.20
   6  -8   3   44.10    4.60
   6   8   3   44.90    4.30
   6  -8  -3   36.90    4.20
   6   8   3   36.50    4.30
   6  -8  -3   43.40    3.60
  -6   8  -3   38.90    3.90
  -6  -8   3   39.40    4.40
   7  -8   3   24.80    3.60
   7  -8   3   33.00    3.70
  -7  -8  -3   24.90    3.70
   7   8  -3   24.80    3.50
  -7   8   3   26.10    3.50
   7   8  -3   36.10    4.80
   7   8   3   27.90    3.70
   7   8   3   30.70    4.10
  -7   8  -3   29.90    3.70
  -7  -8   3   30.70    4.20
   7  -8  -3   26.10    3.70
  -8   8   3   22.10    3.40
   8   8  -3   22.70    3.40
   8  -8   3   21.50    3.50
  -8  -8  -3   20.00    3.50
   8  -8   3   24.60    3.60
   8   8  -3   25.90    4.50
   8  -8  -3   23.30    3.50
  -8  -8   3   30.70    4.50
   8   8   3   28.20    3.90
  -8   8  -3   29.00    3.70
   8   8   3   22.90    4.10
  -9   8   3   11.40    2.80
  -9  -8  -3   23.30    4.10
   9   8  -3   19.60    3.40
   9  -8   3   18.90    3.40
   9  -8   3   23.60    3.90
   9   8   3   22.10    4.50
  -9  -8   3   21.50    3.90
   9  -8  -3   17.40    3.20
  -9   8  -3   13.80    2.90
   9   8   3    9.60    2.90
   0  -9   3  121.09    7.20
   0  -9  -3  145.29    7.10
   0  -9  -3  133.89    7.40
   0  -9   3  137.89    7.20
   0   9  -3  126.69    7.40
   0  -9  -3  135.09    7.30
   0   9  -3  121.69    6.90
   0   9  -3  146.79    7.80
   0  -9  -3  140.29    7.60
   1   9  -3    5.90    1.60
   1   9  -3    8.50    1.70
  -1  -9  -3    6.40    1.80
   1   9  -3    6.60    1.50
  -1  -9  -3    6.60    1.60
   1  -9   3    5.60    1.50
   1  -9   3    1.90    1.30
   1   9   3    5.70    1.40
  -1   9  -3    7.10    1.70
   1   9   3    6.40    0.90
  -1  -9   3    4.30    1.50
  -1   9  -3   10.60    2.10
   1  -9  -3    7.30    1.60
  -1   9  -3    7.40    1.40
   1  -9  -3    8.10    1.70
   1  -9  -3    7.10    1.40
   1   9   3    6.40    1.50
   1  -9  -3    7.00    1.70
  -1  -9   3    6.00    1.60
   2   9  -3  229.08   10.70
  -2  -9  -3  223.78   10.80
   2   9  -3  199.78   10.40
   2  -9   3  199.68   10.30
  -2  -9  -3  204.58   11.00
   2   9  -3  216.58   10.80
  -2   9   3  207.58    9.90
  -2   9  -3  213.08   10.90
   2  -9  -3  207.78   10.80
  -2  -9   3  197.78   10.30
  -2  -9   3  192.58   10.50
   2   9   3  200.18    9.40
  -2   9  -3  202.08   10.30
   2  -9  -3  216.28   10.60
  -2   9  -3  203.08   11.00
   3   9  -3   31.40    3.40
   3  -9   3   29.90    3.30
  -3   9   3   22.10    2.60
   3  -9   3   30.20    3.60
   3   9  -3   29.20    3.20
  -3  -9  -3   28.00    3.60
  -3   9  -3   28.00    3.50
  -3  -9   3   27.00    3.40
  -3   9  -3   34.10    2.90
  -3  -9   3   27.80    3.20
   3   9   3   27.00    2.70
  -3   9  -3   29.00    3.40
   3  -9  -3   30.80    3.50
   3  -9  -3   32.40    3.20
   3   9   3   30.10    3.30
   4  -9   3  114.89    7.20
  -4   9   3  105.59    6.50
   4   9  -3  135.19    7.70
   4   9  -3  115.99    7.30
  -4  -9  -3  119.09    7.90
   4  -9   3  117.49    6.90
  -4   9  -3  130.69    7.10
   4   9   3  126.89    7.10
   4   9   3  115.49    6.70
   4  -9  -3  139.39    7.80
  -4  -9   3  116.79    7.40
   4  -9  -3  128.79    7.20
   5   9  -3    8.60    2.20
  -5   9   3    6.30    1.60
  -5  -9  -3    6.60    2.10
   5  -9   3    6.80    2.00
   5   9  -3    9.10    2.30
   5  -9   3    7.50    1.90
   5   9   3    7.90    1.90
   5  -9  -3    7.70    1.90
  -5   9  -3   11.30    2.00
  -5  -9   3    8.20    2.10
   5  -9  -3    8.80    2.20
   5   9   3    9.60    2.20
  -6   9   3   20.60    3.00
   6  -9   3   18.10    2.90
  -6  -9  -3   21.40    3.50
   6   9  -3   18.60    3.00
   6   9  -3   20.40    3.50
   6  -9   3   21.60    3.30
   6   9   3   20.50    3.30
   6  -9  -3   20.60    3.30
   6   9   3   17.00    2.70
  -6  -9   3   19.80    3.40
  -6   9  -3   24.30    3.10
  -7   9   3    7.00    2.10
   7  -9   3    5.50    2.10
   7  -9   3    8.90    2.20
   7   9  -3    8.50    3.00
  -7  -9  -3   14.70    3.10
   7   9  -3    7.00    2.30
   7  -9  -3    9.20    2.60
  -7   9  -3    9.30    2.30
   7   9   3   11.30    2.30
   7   9   3   11.00    3.00
  -7  -9   3   10.40    2.80
  -8   9   3    7.00    2.20
  -8  -9  -3    5.40    2.30
   8   9  -3    0.60    2.60
   8  -9   3    1.60    1.90
   8   9  -3    7.40    2.30
   8  -9   3    2.00    1.70
  -8  -9   3    4.50    2.20
   8   9   3    0.90    2.40
   8  -9  -3    4.10    2.00
   8   9   3    0.40    1.70
  -8   9  -3    5.90    2.00
  -9  -9  -3    0.60    2.00
   9  -9   3    0.20    1.90
  -9   9   3    1.00    1.90
   9  -9   3   -1.50    1.50
   9   9  -3    1.30    2.00
   9   9   3   -2.10    3.10
  -9  -9   3   -2.20    1.80
  -9   9  -3   -0.90    1.40
   9   9   3    0.00    2.20
   9  -9  -3    1.90    2.00
   0  10  -3    0.10    1.00
   0 -10  -3    1.00    1.20
   0  10   3    0.20    0.40
   0 -10   3   -0.60    1.00
   0 -10  -3   -0.70    0.90
   0  10   3   -0.30    1.10
   0  10  -3   -1.80    0.90
   0 -10   3   -0.40    1.10
   0  10   3   -0.80    1.00
   0  10  -3    0.20    0.80
  -1 -10  -3   15.90    2.50
   1  10  -3   17.20    2.30
   1  10  -3   16.20    2.30
   1 -10   3   16.10    2.50
  -1 -10  -3   16.90    2.60
   1  10  -3   18.20    2.60
  -1 -10   3   13.00    2.40
   1  10   3   19.60    2.60
   1 -10  -3   15.00    2.40
  -1  10  -3   16.00    2.10
  -1  10  -3   17.90    2.60
   1 -10  -3   18.50    2.60
  -1 -10   3   16.80    2.70
   1  10   3   15.60    1.60
  -1  10  -3   14.00    2.40
   1  10   3   18.20    2.60
   2 -10   3   16.40    2.50
   2  10  -3   19.40    2.80
  -2 -10  -3   15.20    2.80
  -2 -10  -3   18.40    2.70
  -2  10   3   17.80    2.30
   2  10  -3   14.50    2.20
   2  10  -3   19.00    2.60
   2  10   3   14.80    2.50
  -2  10  -3   13.90    2.10
   2 -10  -3   15.10    2.60
  -2  10  -3   13.40    2.50
  -2 -10   3   17.30    2.50
   2  10   3   16.80    1.90
  -2 -10   3   14.20    2.60
  -2  10  -3   17.20    2.70
   2 -10  -3   15.40    2.30
  -3 -10  -3   16.60    2.90
  -3  10   3   16.40    2.20
   3 -10   3   15.80    2.60
   3  10  -3   16.50    2.50
  -3  10  -3   13.80    2.50
  -3 -10   3   14.90    2.60
   3  10   3   18.70    2.30
   3 -10  -3   21.50    3.10
  -3  10  -3   14.70    2.30
   3 -10  -3   17.70    2.60
   3  10   3   15.40    2.60
  -3  10  -3   17.40    2.80
  -3 -10   3   15.30    2.60
   4  10  -3   13.80    2.50
   4  10  -3    7.10    2.10
   4 -10   3   12.40    2.30
   4 -10   3    8.70    2.40
  -4  10   3    8.10    1.80
  -4 -10  -3    7.40    2.30
   4  10   3   10.40    2.00
  -4  10  -3   11.90    2.30
   4 -10  -3   10.50    2.40
   4 -10  -3   10.30    2.10
  -4  10  -3    9.50    2.30
   4  10   3   11.20    2.20
  -4 -10   3   10.30    2.40
   5 -10   3    5.20    1.70
  -5  10   3    7.00    1.80
   5  10  -3    2.70    1.60
  -5 -10  -3    4.80    2.00
   5  10  -3    2.50    2.10
   5 -10   3    1.20    1.60
  -5 -10   3    1.90    1.70
   5  10   3    3.10    1.80
   5 -10  -3    3.30    1.80
   5 -10  -3    0.90    1.60
   5  10   3    3.00    1.50
  -6 -10  -3   24.50    4.00
   6 -10   3   21.70    3.50
   6  10  -3   22.20    3.30
   6 -10   3   21.20    3.20
   6  10  -3   14.70    3.30
  -6  10   3   16.90    2.80
  -6  10  -3   18.50    3.40
   6 -10  -3   19.20    3.40
   6  10   3   23.10    3.30
  -6 -10   3   23.30    3.80
   6  10   3   15.30    3.10
   7 -10   3   18.30    3.10
  -7  10   3   12.30    2.90
   7  10  -3   13.20    2.80
  -7 -10  -3   16.10    3.30
   7  10  -3   13.10    3.40
   7 -10   3   13.40    2.80
  -7 -10   3   13.30    3.00
   7 -10  -3   17.90    3.30
   7  10   3   19.50    3.30
  -7  10  -3    9.40    2.60
   7  10   3   15.70    3.60
   8 -10   3   32.20    4.20
   8  10  -3   31.80    5.20
   8  10  -3   39.20    5.00
   8 -10   3   31.00    4.60
  -8 -10  -3   28.50    4.60
  -8  10   3   29.90    4.10
  -8 -10   3   25.60    4.30
   8  10   3   29.30    5.00
   8  10   3   25.20    3.90
  -8  10  -3   29.80    4.20
   8 -10  -3   30.50    4.60
   0  11  -3   21.80    3.00
   0 -11  -3   28.80    3.60
   0  11  -3   21.20    3.10
   0  11   3   15.00    2.40
   0 -11   3   13.60    2.50
   0  11   3   16.10    1.50
   0  11  -3   16.00    2.30
   0  11   3   16.50    2.50
   0 -11  -3   17.50    2.70
   1  11  -3  133.59    7.60
  -1 -11  -3  136.59    7.80
  -1  11   3  120.29    5.70
  -1  11   3  119.89    7.20
  -1 -11  -3  142.49    8.20
  -1  11   3  124.79    7.50
   1  11  -3  125.09    7.20
   1 -11   3  116.79    7.40
   1  11  -3  142.49    8.00
  -1  11  -3  117.59    7.00
   1 -11  -3  135.59    7.70
  -1 -11   3  140.79    7.80
  -1 -11   3  110.29    7.30
  -1  11  -3  126.09    7.70
   1 -11  -3  124.29    7.70
   1  11   3  116.49    6.00
  -1  11  -3  119.29    7.80
   2 -11   3   22.80    3.20
   2  11  -3   21.70    2.90
  -2 -11  -3   24.70    3.60
   2  11  -3   21.60    3.20
   2  11  -3   22.80    3.10
   2 -11  -3   24.50    3.10
  -2 -11   3   20.30    3.30
   2 -11  -3   22.80    3.40
  -2  11  -3   26.20    2.90
   2  11   3   26.90    2.60
  -2 -11   3   24.30    3.30
  -2  11  -3   20.70    3.00
  -2  11  -3   27.00    3.70
   2  11   3   28.60    3.50
  -3 -11  -3   24.00    3.70
   3 -11   3   18.10    2.90
   3  11  -3   25.50    3.30
  -3  11  -3   31.00    4.10
   3 -11  -3   22.20    3.20
  -3  11  -3   28.60    3.20
   3  11   3   23.80    2.70
  -3  11  -3   28.60    3.70
   3 -11  -3   36.80    4.20
   3  11   3   27.50    3.40
  -3 -11   3   22.40    3.10
  -3 -11   3   25.50    3.80
  -4  11   3   23.00    3.20
   4 -11   3   22.80    3.30
  -4 -11  -3   21.60    3.60
   4  11  -3   22.00    3.40
   4  11  -3   26.30    3.70
   4  11   3   23.50    3.00
   4  11   3   21.80    3.10
  -4  11  -3   25.20    3.60
  -4  11  -3   24.80    3.80
  -4  11  -3   26.40    3.30
   4 -11  -3   27.80    3.80
  -4 -11   3   22.40    3.60
   4 -11  -3   23.40    3.20
   5  11  -3    6.30    2.50
  -5  11   3    3.30    1.60
   5  11  -3    6.20    2.10
   5 -11   3    6.10    2.20
  -5 -11  -3    4.30    2.40
   5 -11   3    8.40    2.30
   5  11   3    7.10    2.20
  -5  11  -3    4.50    2.00
   5 -11  -3    5.00    2.10
   5  11   3    3.10    1.80
  -5  11  -3    5.10    2.30
  -5  11  -3    6.40    2.00
  -5 -11   3    5.80    2.40
  -6 -11  -3   12.10    3.10
   6  11  -3   11.70    2.80
  -6  11   3    8.20    2.30
   6 -11   3   10.10    2.50
   6  11  -3   17.90    3.70
   6 -11   3   11.50    2.90
   6  11   3    8.00    2.30
   6  11   3    8.90    2.70
   6 -11  -3    8.20    2.70
  -6 -11   3   10.80    3.10
  -7  11   3   28.10    3.80
   7 -11   3   24.80    3.70
   7  11  -3   20.70    4.40
   7 -11   3   20.80    3.90
   7  11  -3   25.90    4.10
  -7 -11  -3   26.00    4.30
   7  11   3   26.70    4.50
   7 -11  -3   25.40    4.10
  -7 -11   3   24.00    4.20
   7  11   3   28.80    3.90
   0 -12   3    1.10    1.50
   0 -12  -3   -1.50    1.30
   0  12   3   -0.50    2.40
   0  12  -3    1.10    1.10
   0  12  -3    1.60    1.70
   0  12   3   -1.40    2.20
   0  12  -3    0.40    1.70
   0  12   3    0.20    0.80
  -1  12   3    1.90    1.50
   1 -12   3    3.50    1.80
  -1  12   3    5.50    1.10
   1  12  -3    5.30    2.00
   1  12  -3    1.00    1.60
  -1 -12  -3    4.90    1.90
  -1 -12  -3    7.90    2.20
  -1  12   3    8.30    2.20
   1  12  -3    4.40    1.50
   1  12   3    4.60    1.20
  -1 -12   3    4.00    1.90
  -1 -12   3    6.60    2.20
  -1  12  -3    4.70    1.90
  -1  12  -3    4.60    1.50
  -1  12  -3    1.80    1.70
   1 -12  -3    7.00    2.00
   2  12  -3   44.10    4.30
  -2 -12  -3   38.60    4.80
   2 -12   3   43.60    4.70
  -2  12  -3   47.90    5.20
  -2  12  -3   49.10    3.90
  -2  12  -3   42.60    4.60
   2  12   3   49.30    4.90
   2 -12  -3   48.10    4.70
   2  12   3   45.10    3.30
  -2 -12   3   45.50    4.80
  -2 -12   3   39.70    4.70
   2 -12  -3   44.00    4.70
  -3 -12  -3    2.50    1.90
   3 -12   3    1.60    1.60
   3  12  -3    0.70    1.40
  -3  12  -3    1.50    1.30
   3  12   3    1.60    1.60
  -3  12  -3   -0.70    1.50
  -3 -12   3   -0.40    1.10
  -3  12  -3    0.50    1.40
   3 -12  -3    1.20    1.70
  -3 -12   3   -0.90    1.60
   3  12   3    1.30    1.30
   3 -12  -3    2.40    1.80
  -4 -12  -3   12.50    3.30
   4  12  -3   18.90    3.30
   4 -12   3   18.90    3.10
   4  12  -3   16.40    3.00
  -4 -12   3   16.20    3.40
  -4  12  -3   19.40    3.10
   4  12   3   19.80    2.90
   4  12   3   13.20    2.60
  -4  12  -3   17.20    3.20
  -4  12  -3   15.70    3.40
   4 -12  -3   15.60    3.10
   5  12  -3    3.80    2.30
   5 -12   3    4.30    2.10
   5  12  -3    3.00    1.90
  -5 -12  -3    5.40    2.50
   5 -12  -3    6.50    2.60
  -5  12  -3    4.80    2.00
  -5  12  -3    4.30    2.00
  -5  12  -3    3.70    2.00
   5  12   3    3.20    1.80
   5  12   3    6.50    2.10
  -5 -12   3    1.40    2.20
  -6 -12  -3   64.89    7.30
   6 -12   3   72.09    5.90
   6  12  -3   76.99    6.40
   6  12  -3   70.59    7.10
  -6  12  -3   58.49    6.30
  -6 -12   3   69.19    7.30
  -6  12  -3   76.99    7.40
   6  12   3   67.59    5.70
   6  12   3   61.89    6.40
   6 -12  -3   60.59    6.60
  -6  12  -3   58.19    6.40
   0 -13   3   18.50    3.20
   0 -13  -3   21.00    3.30
   0  13  -3   27.50    4.00
   0  13   3   18.90    2.10
   0  13  -3   15.90    2.70
   0  13  -3   27.70    3.90
  -1  13   3   46.80    5.10
   1  13  -3   45.50    5.20
  -1  13   3   52.19    5.20
  -1  13   3   41.10    2.90
  -1 -13  -3   52.19    6.50
   1  13  -3   49.40    4.20
   1  13  -3   52.59    5.60
   1 -13   3   46.40    5.00
  -1 -13  -3   46.90    4.90
  -1  13  -3   49.20    4.50
  -1  13  -3   43.70    5.00
   1  13   3   43.20    3.20
  -1  13  -3   55.09    5.70
   1 -13  -3   46.50    4.90
  -1 -13   3   45.30    4.90
  -2 -13  -3   16.80    3.30
   2 -13   3   15.00    2.90
  -2  13   3   14.50    3.10
  -2  13   3   11.30    2.70
  -2  13   3   15.80    1.90
   2  13  -3   13.60    2.60
   2 -13  -3   15.10    2.90
  -2  13  -3   15.10    2.50
  -2 -13   3   11.20    2.80
  -2  13  -3   14.20    3.30
   2  13   3   13.10    2.10
  -2  13  -3   13.00    2.80
  -2 -13   3   15.20    3.30
   2  13   3   13.50    2.80
   3  13  -3   13.10    2.60
   3  13  -3   10.50    2.70
  -3  13   3   19.40    3.40
   3 -13   3   11.50    2.70
  -3  13   3   11.30    1.90
  -3 -13  -3   15.50    3.50
  -3  13   3    8.30    2.90
   3 -13  -3   10.60    2.90
  -3  13  -3   11.50    2.40
  -3  13  -3    9.80    2.80
   3  13   3    9.40    2.60
   3  13   3    9.10    2.00
  -3  13  -3   13.50    3.00
   3 -13  -3   10.70    3.20
  -3 -13   3    9.10    2.90
  -4 -13  -3   12.10    3.20
   4  13  -3    2.00    1.70
   4 -13   3    4.20    2.20
   4  13  -3    4.20    2.60
  -4  13  -3    6.20    2.40
   4 -13  -3    5.10    2.30
  -4 -13   3    2.10    2.20
  -4  13  -3    3.40    2.00
   4  13   3    4.00    2.00
   4  13   3    7.40    2.10
  -4  13  -3    8.70    2.20
  -5 -13  -3   23.60    4.50
   5 -13   3   25.80    4.00
   5  13  -3   30.40    4.90
   5  13  -3   24.40    4.40
  -5  13  -3   24.90    4.00
   5  13   3   26.10    4.00
  -5  13  -3   23.50    3.60
  -5  13  -3   22.40    3.90
   5 -13  -3   28.60    4.70
   5  13   3   24.80    3.70
  -5 -13   3   28.00    4.80
   0  14  -3   -0.20    2.10
   0 -14  -3    0.20    1.90
   0 -14   3   -1.10    1.90
   0  14  -3    2.20    1.50
   0  14   3    0.30    1.00
   0  14  -3    1.40    2.00
  -1  14   3    2.60    1.20
   1 -14   3   -1.00    1.80
  -1 -14  -3   -0.30    1.80
   1  14  -3    2.30    1.60
  -1  14  -3    4.80    2.20
  -1 -14   3    1.50    2.10
  -1  14  -3   -1.20    1.90
  -1  14  -3    1.90    1.50
   1 -14  -3    6.20    2.20
   1  14   3    0.90    1.20
   2  14  -3    2.40    1.70
  -2  14   3    2.50    2.30
  -2 -14  -3    3.90    2.80
   2 -14   3    2.70    2.00
  -2  14   3    3.60    2.40
  -2  14   3    4.80    1.50
  -2  14  -3    4.70    2.30
  -2  14  -3    1.80    1.60
   2  14   3    4.40    1.50
   2  14   3    3.00    1.80
   2 -14  -3    5.70    2.60
  -2 -14   3    7.50    2.80
  -2  14  -3    5.00    2.50
  -3 -14  -3    6.00    3.10
   3  14  -3   11.90    2.70
   3  14  -3   11.90    2.70
  -3  14   3   12.20    2.00
   3 -14   3   11.10    3.20
  -3  14   3   10.30    2.80
  -3  14   3   12.90    3.20
  -3 -14   3   14.50    3.70
   3  14   3    6.60    2.30
  -3  14  -3   11.20    3.10
  -3  14  -3   12.80    2.60
  -3  14  -3   14.10    3.30
   3  14   3   12.10    2.40
   0   0   4 2228.38   93.29
  -1   0  -4    0.20    0.30
  -1   0   4    0.10    0.40
   1   0  -4    0.40    0.30
  -1   0   4    0.30    0.50
   1   0   4   -0.20    0.40
   1   0   4    0.00    0.30
   1   0   4    0.40    0.50
   1   0  -4    0.30    0.40
   2   0   4  326.77   14.80
  -2   0   4  344.07   14.80
  -2   0  -4  322.57   14.70
   2   0   4  349.07   15.20
   2   0  -4  321.37   14.80
  -2   0   4  347.77   15.00
  -2   0  -4  369.46   14.70
   3   0   4    0.20    0.40
  -3   0   4    0.20    0.40
  -3   0  -4   -0.30    0.40
  -3   0  -4    0.20    0.40
  -3   0   4   -0.20    0.30
   3   0  -4    0.10    0.30
   3   0   4    0.50    0.40
   3   0   4   -0.10    0.70
   3   0  -4    0.10    0.50
   4   0  -4  100.79    5.20
  -4   0  -4  104.69    5.50
   4   0   4  107.59    5.80
  -4   0  -4  111.79    5.30
   4   0  -4  113.09    6.00
   4   0  -4  106.79    5.50
   4   0   4  103.09    5.40
  -4   0   4  102.19    5.30
   4   0   4  105.89    5.00
  -4   0   4   99.29    5.20
   5   0   4    0.30    0.50
  -5   0  -4   -0.70    0.50
   5   0  -4   -0.20    1.10
   5   0   4    0.20    0.60
  -5   0   4    0.20    0.60
   5   0   4    0.30    1.00
  -5   0   4   -0.10    0.60
   5   0  -4    0.30    0.60
   5   0  -4    0.10    0.60
  -5   0  -4    0.20    0.60
  -6   0  -4  202.28    9.40
   6   0  -4  183.68    9.50
   6   0   4  191.88    9.10
  -6   0  -4  183.88    9.60
   6   0   4  187.08    9.60
  -6   0   4  191.78    9.40
   6   0  -4  206.28    9.40
  -6   0   4  200.38    9.50
   6   0   4  193.48   10.30
   7   0  -4   -0.70    0.80
  -7   0   4   -0.10    0.90
  -7   0  -4    0.40    1.00
   7   0  -4    0.30    0.90
   7   0   4    0.60    0.90
  -8   0   4  216.98   11.20
   8   0  -4  228.48   10.80
  -8   0  -4  209.58   11.00
   8   0  -4  196.98   10.70
   8   0   4  217.38   11.30
  -9   0   4   -0.70    1.10
   9   0  -4    0.80    1.40
  -9   0  -4    1.50    1.50
   9   0   4   -1.90    1.10
 -10   0   4   23.10    3.60
  10   0   4   22.40    3.60
 -10   0  -4   28.00    3.90
 -11   0   4   -1.30    1.70
  11   0   4    1.70    2.10
 -11   0  -4   -0.70    2.10
   0  -1  -4    0.50    0.40
   0  -1   4    0.40    0.40
   0   1  -4   -0.60    0.40
   0   1   4    0.30    0.40
   0   1   4   -0.10    0.30
   1   1  -4  257.47   11.40
  -1  -1  -4  252.67   11.30
  -1   1   4  268.07   11.40
  -1  -1  -4  274.87   11.40
   1  -1   4  263.67   11.40
  -1   1   4  252.17   11.50
   1   1   4  267.47   11.50
  -1   1  -4  247.18   11.20
  -1   1  -4  263.67   11.20
   1  -1  -4  263.07   11.30
   1   1   4  259.57   11.30
   1  -1  -4  264.97   11.30
  -1   1  -4  255.47   11.20
  -1   1  -4  246.88   11.40
   2   1  -4  189.98    8.20
   2  -1   4  171.38    7.90
  -2  -1  -4  178.78    8.20
   2   1  -4  175.68    7.90
  -2  -1  -4  179.68    8.10
   2   1  -4  188.78    8.40
   2  -1   4  170.88    8.00
  -2   1   4  185.48    8.00
  -2   1   4  176.88    8.00
  -2  -1   4  185.38    8.20
   2  -1  -4  175.68    8.10
   2   1   4  177.88    8.00
   2   1   4  166.48    8.20
  -2  -1   4  181.38    7.80
   2  -1  -4  170.98    8.20
  -2   1  -4  173.78    8.10
   3  -1   4   30.90    1.90
  -3   1   4   32.70    2.00
  -3  -1  -4   33.30    2.10
  -3   1   4   29.90    2.00
   3   1  -4   31.50    1.90
   3  -1   4   31.30    2.50
   3   1  -4   28.20    2.30
  -3  -1  -4   36.60    2.20
   3   1  -4   30.70    2.10
   3   1   4   29.40    2.30
  -3   1  -4   32.70    1.90
   3  -1  -4   30.40    1.80
  -3  -1   4   26.00    2.00
   3   1   4   27.70    2.00
   3  -1  -4   30.60    2.10
  -3  -1   4   30.30    1.90
   4  -1   4  155.08    7.30
  -4   1   4  150.28    7.40
  -4  -1  -4  166.98    7.80
   4  -1   4  158.28    7.70
   4   1  -4  154.78    7.70
   4   1  -4  162.18    8.20
   4  -1   4  169.88    8.20
  -4  -1  -4  152.88    7.70
  -4   1   4  158.18    7.60
   4   1  -4  157.88    7.50
  -4   1  -4  176.98    7.40
  -4  -1   4  151.88    7.60
  -4  -1   4  154.98    7.40
   4   1   4  159.18    7.00
   4  -1  -4  151.88    7.80
   4   1   4  155.88    7.60
   4  -1  -4  157.28    7.40
  -4   1  -4  163.48    7.80
   4   1   4  159.08    8.10
   5  -1   4   90.49    5.40
   5  -1   4   78.69    4.80
  -5   1   4   85.29    4.60
   5   1  -4   93.39    4.80
   5   1  -4   83.79    4.60
  -5  -1  -4   74.89    4.70
   5  -1   4   86.09    4.50
   5   1  -4   91.09    5.40
  -5   1   4   78.49    4.70
  -5  -1  -4   84.69    4.70
   5   1   4   84.89    5.30
  -5  -1   4   83.29    4.80
   5   1   4   90.49    4.20
  -5  -1   4   84.89    4.60
  -5   1  -4   91.19    4.40
   5   1   4   87.99    4.90
   5  -1  -4   78.29    4.80
   5  -1  -4   84.89    4.50
  -5   1  -4   83.19    4.80
  -6  -1  -4    1.50    0.90
  -6  -1  -4    1.50    1.00
   6  -1   4    0.50    0.60
  -6   1   4    1.80    1.00
   6  -1   4    1.60    1.00
   6   1  -4    1.60    0.80
  -6   1   4    2.30    0.90
   6   1  -4    1.20    0.90
  -6   1  -4    2.10    1.00
  -6  -1   4    0.20    0.80
   6   1   4    3.20    1.60
  -6  -1   4    1.80    0.90
   6   1   4    0.90    1.00
   6  -1  -4    1.10    0.80
   6  -1  -4    1.60    0.90
   7  -1   4   87.49    5.40
   7   1  -4   81.59    5.00
  -7  -1  -4   73.19    5.10
  -7   1   4   75.69    5.10
   7   1  -4   86.19    5.00
  -7  -1   4   78.79    5.00
   7   1   4   87.59    5.40
   7  -1  -4   86.69    4.90
  -7   1  -4   82.39    5.30
   7  -1  -4   80.79    5.10
  -7  -1   4   84.19    5.10
   8  -1   4    9.40    2.10
   8   1  -4    9.70    2.00
  -8   1   4    5.20    1.70
   8   1  -4    5.80    1.70
  -8  -1  -4    5.10    1.70
   8  -1  -4    5.40    1.50
  -8  -1   4   11.00    2.10
  -8   1  -4    6.40    1.80
   8  -1  -4   11.20    2.00
   8   1   4    3.40    1.40
   9   1  -4   61.39    4.70
  -9  -1  -4   62.09    4.90
  -9   1   4   61.19    4.90
   9  -1   4   54.39    5.20
   9   1   4   59.49    4.90
   9  -1  -4   56.39    4.60
  -9   1  -4   55.99    4.80
  -9  -1   4   61.19    4.70
   9  -1  -4   55.89    4.50
  10   1  -4   12.20    3.10
 -10   1   4   14.70    2.90
 -10  -1  -4   16.00    3.10
  10  -1   4   18.10    3.20
 -10   1  -4   10.90    2.60
  10   1   4   14.30    3.00
 -10  -1   4   10.60    2.70
 -11   1   4   16.40    3.60
 -11  -1  -4   15.10    3.30
  11  -1   4   24.00    4.00
 -11   1  -4   13.00    3.10
 -11  -1   4   21.90    3.80
  11   1   4   18.40    3.60
   0  -2  -4 1587.64   63.49
   0   2  -4 1433.36   63.59
   0   2  -4 1582.34   63.69
   0  -2  -4 1402.96   63.69
   0   2  -4 1576.64   63.79
   0  -2   4 1464.55   62.79
   0  -2  -4 1505.25   63.59
   0  -2   4 1511.25   62.79
   0   2   4 1508.05   62.39
   1   2  -4   25.60    1.70
   1  -2   4   23.50    1.60
   1   2  -4   21.30    1.70
  -1   2   4   24.50    1.60
  -1   2   4   25.30    1.40
   1  -2   4   22.90    1.60
  -1  -2   4   25.70    1.50
  -1  -2   4   25.30    1.70
  -1   2  -4   23.10    1.40
  -1   2  -4   22.10    1.70
   1   2   4   24.60    1.50
   1  -2  -4   24.70    1.60
   1   2   4   23.60    1.50
  -1   2  -4   23.40    1.60
  -1   2  -4   23.20    1.50
   2  -2   4  220.78    9.90
   2   2  -4  205.08    9.70
  -2  -2  -4  206.68    9.70
  -2   2   4  223.48    9.80
  -2  -2  -4  209.98    9.50
   2   2  -4  212.18    9.60
   2  -2   4  216.68    9.90
  -2  -2   4  213.28    9.70
   2   2   4  223.38   10.00
   2   2   4  220.68    9.80
  -2   2  -4  212.58    9.50
   2  -2  -4  210.48    9.60
   2  -2  -4  219.98    9.30
   3  -2   4  435.06   18.70
   3   2  -4  413.66   18.90
  -3  -2  -4  425.06   18.60
  -3   2   4  430.56   18.50
   3   2  -4  433.96   18.60
   3  -2   4  415.56   18.70
   3   2  -4  431.56   18.50
  -3  -2  -4  421.86   18.80
  -3   2   4  398.26   18.70
   3   2   4  429.26   19.00
  -3   2  -4  424.36   18.60
  -3  -2   4  439.46   18.90
   3  -2  -4  428.46   18.30
   3   2   4  410.76   18.70
   3  -2  -4  418.76   18.80
  -3  -2   4  458.25   18.40
  -4  -2  -4  152.68    7.50
  -4  -2  -4  146.49    7.40
   4   2  -4  151.48    7.80
   4   2  -4  150.28    7.30
   4   2  -4  150.08    7.20
  -4   2   4  162.88    7.90
   4  -2   4  168.68    7.80
   4  -2   4  160.88    7.90
  -4   2   4  174.18    7.60
  -4   2  -4  153.68    7.40
   4   2   4  159.08    8.30
   4   2   4  154.18    7.90
  -4  -2   4  155.28    7.50
   4  -2  -4  146.99    7.50
   4  -2  -4  157.28    7.10
  -4  -2   4  166.48    8.10
  -5  -2  -4   54.49    3.50
   5  -2   4   58.39    3.70
  -5  -2  -4   51.29    3.50
   5   2  -4   59.89    4.20
  -5   2   4   58.99    3.70
   5  -2   4   53.39    3.40
   5   2  -4   54.59    3.50
   5   2  -4   55.49    3.50
  -5   2   4   60.89    3.30
  -5  -2   4   59.89    3.40
   5   2   4   56.59    3.70
   5  -2  -4   56.69    3.70
  -5   2  -4   59.09    3.70
   5  -2  -4   58.79    3.30
   5   2   4   53.79    4.10
  -5  -2   4   49.70    3.60
   6  -2   4  268.97   13.00
  -6  -2  -4  271.37   12.90
   6   2  -4  276.67   12.80
  -6   2   4  273.17   13.00
  -6  -2  -4  273.37   13.00
   6  -2   4  264.67   12.70
   6   2  -4  275.77   12.80
   6   2  -4  276.37   13.70
  -6  -2   4  266.67   13.10
   6   2   4  290.37   13.20
   6   2   4  263.57   13.60
  -6  -2   4  279.97   12.70
   6  -2  -4  283.37   13.10
   6  -2  -4  264.97   12.60
  -6   2  -4  257.87   13.00
   7  -2   4   19.00    2.50
  -7   2   4   22.10    2.80
   7   2  -4   26.20    2.70
   7   2  -4   21.50    2.50
   7  -2   4   24.50    2.70
  -7  -2  -4   19.00    2.50
  -7  -2  -4   26.40    2.90
  -7   2  -4   23.60    2.80
  -7  -2   4   22.20    2.70
   7  -2  -4   26.80    2.60
   7  -2  -4   20.20    2.70
   7   2   4   21.90    2.80
   7   2   4   31.80    4.00
  -7  -2   4   24.70    2.60
  -8   2   4  126.39    7.20
   8   2  -4  113.29    6.80
   8  -2   4  111.59    7.00
  -8  -2  -4  112.79    6.90
  -8  -2   4  112.99    6.90
  -8   2  -4  126.09    7.30
   8  -2  -4  107.79    6.90
  -8  -2   4  123.69    6.80
   8   2   4  107.19    6.90
   8  -2  -4  126.69    6.70
   9   2  -4   30.50    3.50
  -9   2   4   31.60    3.80
   9  -2   4   25.10    3.50
  -9  -2  -4   29.90    3.70
  -9   2  -4   32.40    3.90
  -9  -2   4   33.00    3.60
   9   2   4   36.10    4.10
   9  -2  -4   30.10    3.60
 -10   2   4    6.20    2.30
 -10  -2  -4    3.50    2.00
  10  -2   4    4.90    2.10
  10   2  -4    5.40    2.10
 -10   2  -4    5.20    2.10
 -10  -2   4    5.70    2.30
  10   2   4    3.60    1.90
 -11   2   4    3.70    2.30
  11  -2   4    1.40    2.20
 -11  -2  -4    3.20    2.30
  11   2   4    0.70    2.00
 -11   2  -4    2.10    2.40
   0  -3  -4   -0.20    0.30
   0   3  -4    0.30    0.50
   0  -3  -4    0.50    0.40
   0   3  -4    0.80    0.50
   0   3  -4   -0.10    0.40
   0  -3   4   -0.40    0.30
   0  -3  -4   -0.20    0.40
   0  -3  -4    0.30    0.30
   0  -3   4    0.10    0.40
  -1   3   4  266.77   10.90
   1   3  -4  271.77   11.90
  -1  -3  -4  267.17   12.00
   1   3  -4  275.47   11.80
  -1   3   4  265.07   11.50
   1  -3   4  243.78   11.30
   1   3  -4  257.87   11.80
  -1   3   4  252.67   10.90
  -1  -3  -4  272.57   11.80
   1  -3   4  257.17   11.50
  -1   3  -4  250.97   11.80
  -1  -3   4  276.87   11.70
   1   3   4  248.68   11.10
   1  -3  -4  268.67   11.50
   1   3   4  261.57   11.20
  -1  -3   4  265.17   11.50
  -1   3  -4  260.37   11.90
   1   3   4  252.17   11.40
  -1   3  -4  261.67   11.90
   1  -3  -4  263.67   11.80
   1  -3  -4  282.67   11.80
  -1   3  -4  246.08   11.40
   2   3  -4  123.99    6.10
   2  -3   4  112.79    5.80
   2  -3   4  115.59    5.80
  -2  -3  -4  123.69    6.30
  -2  -3  -4  123.79    6.00
  -2   3   4  122.09    5.60
   2   3  -4  121.19    6.20
   2   3   4  123.69    5.70
   2  -3  -4  124.19    6.10
   2  -3  -4  124.69    6.00
   2   3   4  117.29    5.70
  -2  -3   4  116.59    5.90
  -2   3  -4  122.49    5.80
  -2  -3   4  116.29    5.70
   2  -3  -4  127.19    5.70
   3  -3   4  100.39    5.20
  -3   3   4   97.69    5.20
  -3  -3  -4  104.69    5.30
   3   3  -4  101.19    5.30
  -3  -3  -4  110.29    5.60
   3   3  -4  107.39    5.40
  -3   3   4  106.59    5.00
   3   3  -4  107.69    5.70
  -3   3  -4  103.99    5.30
  -3  -3   4  103.39    5.50
   3   3   4  102.69    5.20
  -3  -3   4   96.79    4.70
   3  -3  -4  112.29    5.10
   3  -3  -4  101.29    5.50
   3   3   4  104.49    5.40
   4  -3   4  158.18    7.80
   4   3  -4  164.48    8.50
   4   3  -4  158.98    7.80
  -4   3   4  168.88    7.40
  -4  -3  -4  158.28    8.20
  -4  -3  -4  165.48    7.90
   4   3  -4  164.18    7.90
  -4   3   4  152.98    7.80
   4  -3   4  158.38    7.90
   4  -3  -4  166.48    7.60
   4   3   4  171.88    8.30
  -4   3  -4  161.08    7.90
   4  -3  -4  163.28    8.10
  -4  -3   4  153.48    8.00
   4   3   4  152.68    7.80
  -4  -3   4  155.88    7.30
   5   3  -4   28.20    3.20
   5   3  -4   21.70    2.30
  -5  -3  -4   20.20    2.40
   5   3  -4   26.30    2.20
  -5   3   4   23.00    2.40
   5  -3   4   23.10    2.40
  -5  -3  -4   20.50    2.20
   5  -3   4   25.00    2.60
   5   3   4   30.40    3.20
   5   3   4   20.90    2.30
   5  -3  -4   24.70    2.60
  -5  -3   4   29.80    2.10
  -5  -3   4   19.10    2.40
   5  -3  -4   24.10    1.90
  -5   3  -4   23.70    2.50
   6   3  -4  164.38    9.00
  -6  -3  -4  163.98    8.20
  -6   3   4  156.38    8.50
   6   3  -4  159.38    8.20
   6   3  -4  159.28    8.00
  -6  -3  -4  158.18    8.40
   6  -3   4  164.18    8.50
   6  -3   4  165.28    8.40
   6   3   4  158.08    8.50
  -6  -3   4  168.08    8.10
  -6  -3   4  158.38    8.60
   6  -3  -4  160.28    7.90
  -6   3  -4  160.88    8.30
   6   3   4  173.38    9.20
   6  -3  -4  141.69    8.30
   7   3  -4  141.49    7.70
   7  -3   4  138.59    7.90
   7  -3   4  147.99    7.70
  -7  -3  -4  148.99    8.00
   7   3  -4  141.39    7.60
  -7   3   4  126.89    7.70
  -7  -3  -4  149.69    7.80
  -7   3  -4  140.79    7.90
   7  -3  -4  130.49    7.80
  -7  -3   4  143.99    7.50
  -7  -3   4  146.49    8.10
   7   3   4  146.79    8.70
   7  -3  -4  142.59    7.50
   7   3   4  149.09    8.00
  -8   3   4  103.99    6.70
   8   3  -4  100.29    6.50
   8  -3   4  113.79    6.90
  -8  -3  -4  115.19    6.80
  -8  -3  -4  119.59    7.00
  -8  -3   4  115.19    6.90
   8  -3  -4  101.79    6.70
  -8   3  -4  119.09    7.00
   8  -3  -4  112.89    6.50
   8   3   4  105.09    6.80
  -8  -3   4  113.19    6.50
  -9   3   4   45.80    4.70
  -9  -3  -4   46.60    4.70
   9  -3   4   53.79    5.00
   9   3  -4   47.50    4.50
   9   3   4   50.19    4.90
  -9   3  -4   48.00    4.90
   9  -3  -4   44.40    4.60
 -10  -3  -4   86.49    6.20
  10   3  -4   83.29    6.10
 -10   3   4   88.79    6.60
  10  -3   4   79.79    6.30
  10  -3  -4   76.89    6.20
  10   3   4   84.39    6.50
 -10   3  -4   78.59    6.30
 -11   3   4    2.50    2.50
 -11  -3  -4    0.50    2.10
  11  -3   4    5.50    2.60
  11   3  -4    0.50    2.80
 -11   3  -4    1.80    2.50
  11   3   4    1.90    2.30
   0  -4   4  272.77   11.80
   0  -4   4  252.37   11.70
   0   4  -4  295.77   12.30
   0   4  -4  274.67   12.20
   0  -4  -4  235.08   12.20
   0  -4  -4  266.07   12.00
   0  -4  -4  281.47   12.10
   0   4  -4  266.27   12.30
   0  -4  -4  279.87   12.00
   1   4  -4  389.66   16.50
  -1  -4  -4  353.26   16.50
   1  -4   4  406.96   16.80
   1   4  -4  382.16   16.50
  -1  -4  -4  380.56   16.30
  -1  -4  -4  363.66   16.00
   1   4  -4  357.16   16.30
  -1   4  -4  349.07   16.40
   1  -4  -4  366.56   16.40
   1   4   4  398.66   16.90
   1  -4  -4  375.26   16.10
  -1   4  -4  385.56   16.50
   1  -4  -4  367.36   16.30
  -1   4  -4  359.86   16.40
  -1  -4   4  371.46   17.00
   1   4   4  381.66   16.40
   1   4   4  371.66   16.40
  -1   4  -4  401.66   16.00
  -1  -4   4  394.46   17.20
   1  -4  -4  359.56   16.30
   2  -4   4   59.49    2.90
  -2  -4  -4   63.59    3.80
   2   4  -4   56.89    3.50
  -2   4   4   60.89    3.20
   2  -4   4   55.89    3.40
  -2  -4  -4   65.79    3.50
   2   4  -4   65.99    3.70
  -2   4   4   60.69    3.00
   2  -4   4   58.09    3.40
  -2  -4   4   53.09    3.50
   2   4   4   58.59    3.30
   2   4   4   62.59    3.20
   2  -4  -4   60.69    3.60
  -2  -4   4   55.69    3.30
   2   4   4   49.50    3.10
   2   4   4   57.39    3.30
  -2   4  -4   58.69    3.20
   2  -4  -4   59.49    3.50
   2  -4  -4   61.99    3.20
   3  -4   4  292.67   13.50
  -3   4   4  294.37   13.50
  -3   4   4  313.17   13.20
  -3  -4  -4  297.47   13.20
   3   4  -4  285.67   13.50
   3  -4   4  289.77   13.60
   3   4  -4  303.97   13.30
   3   4  -4  282.37   13.20
  -3  -4  -4  280.57   13.50
   3  -4  -4  297.37   13.50
   3   4   4  282.77   13.40
  -3   4  -4  280.17   13.10
  -3  -4   4  318.27   12.80
  -3  -4   4  284.57   13.80
   3  -4  -4  301.87   13.00
   3   4   4  292.77   13.50
   4  -4   4  161.98    7.70
   4   4  -4  150.88    7.70
   4  -4   4  140.69    7.40
  -4   4   4  160.88    7.00
  -4  -4  -4  146.29    7.60
  -4  -4  -4  138.39    7.10
  -4   4   4  152.88    7.50
   4   4  -4  142.09    7.20
   4   4  -4  153.08    7.20
  -4  -4   4  148.59    6.80
   4   4   4  132.99    7.60
   4  -4  -4  142.09    6.90
   4  -4  -4  145.99    7.50
   4   4   4  145.49    7.50
  -4   4  -4  136.39    7.20
  -4  -4   4  138.79    7.60
   5   4  -4  419.26   19.00
   5   4  -4  412.86   18.20
   5  -4   4  393.16   18.50
  -5  -4  -4  426.16   18.80
  -5   4   4  388.26   18.50
   5   4  -4  391.36   18.20
  -5  -4  -4  389.36   18.20
   5  -4   4  429.76   18.60
   5   4   4  382.16   18.80
   5  -4  -4  385.56   18.50
  -5   4  -4  406.46   18.40
   5   4   4  401.66   18.50
  -5  -4   4  420.86   17.90
   5  -4  -4  403.56   18.00
  -5  -4   4  423.76   18.90
  -6  -4  -4   45.30    3.80
  -6   4   4   52.89    3.90
  -6  -4  -4   47.70    3.60
   6  -4   4   56.49    3.90
   6   4  -4   59.39    3.80
   6   4  -4   53.89    5.00
   6   4  -4   50.59    3.40
   6  -4   4   49.00    3.70
   6   4   4   49.00    3.80
   6  -4  -4   50.19    3.40
   6   4   4   48.90    4.70
   6  -4  -4   46.10    3.80
  -6   4  -4   47.70    3.70
  -6  -4   4   43.70    3.90
  -6  -4   4   57.09    3.40
   7   4  -4   48.20    5.00
   7  -4   4   41.50    3.50
  -7   4   4   36.20    3.80
  -7  -4  -4   46.70    3.80
   7  -4   4   46.90    3.60
  -7  -4  -4   41.40    3.50
   7   4  -4   45.40    3.60
  -7   4  -4   42.60    3.60
   7  -4  -4   46.40    3.90
   7   4   4   45.30    4.70
   7   4   4   43.80    3.70
  -7  -4   4   40.60    3.70
   7  -4  -4   44.60    3.40
   8   4  -4    6.00    1.80
   8  -4   4    7.70    1.80
  -8  -4  -4    5.60    1.80
   8  -4   4    4.10    1.70
  -8   4   4    6.30    1.90
  -8  -4  -4    4.70    1.80
  -8   4  -4    5.80    1.70
  -8  -4   4    4.60    1.80
   8   4   4    9.10    2.10
   8   4   4    3.00    2.20
   8  -4  -4    6.90    1.80
  -9   4   4    2.60    1.70
   9   4  -4    1.40    1.30
   9  -4   4    1.80    1.70
  -9  -4  -4   -2.30    1.20
   9   4   4    1.20    1.70
  -9  -4   4    3.70    1.80
  -9   4  -4   -0.30    1.30
   9  -4  -4   -0.40    1.30
  10   4  -4    2.10    2.00
  10  -4   4    1.90    1.70
 -10   4   4    8.50    2.70
 -10  -4  -4    2.90    2.10
  10  -4  -4    4.20    2.00
  10   4   4    2.20    1.90
 -10   4  -4    1.80    1.80
  11  -4   4    9.70    3.00
 -11   4   4    3.90    3.00
  11   4  -4   10.80    3.10
 -11   4  -4    1.60    1.90
  11   4   4    9.90    3.30
   0  -5  -4   -0.40    0.50
   0   5  -4   -0.30    0.50
   0  -5   4   -0.60    0.40
   0  -5   4   -0.10    0.40
   0  -5  -4    0.00    0.40
   0  -5  -4   -0.30    0.40
   0   5  -4    0.10    0.60
   0   5  -4   -0.20    0.50
   0  -5  -4   -0.10    0.40
   1  -5   4  186.38    8.90
  -1  -5  -4  191.78    8.80
  -1  -5  -4  191.68    8.60
   1   5  -4  195.58    9.00
   1  -5   4  209.88    8.70
   1   5  -4  201.78    9.00
  -1  -5  -4  183.48    8.70
   1   5  -4  181.98    8.90
  -1  -5  -4  194.38    9.20
  -1   5  -4  184.58    9.00
  -1   5  -4  181.88    9.00
  -1   5  -4  181.08    8.80
  -1  -5   4  182.38    9.00
   1  -5  -4  192.88    8.90
  -1   5  -4  177.38    8.40
   1  -5  -4  191.98    8.80
   1   5   4  188.68    8.00
   1  -5  -4  185.68    8.60
   1   5   4  181.08    8.00
   1  -5  -4  177.48    8.80
  -1  -5   4  178.38    8.90
   2   5  -4   43.80    3.10
   2  -5   4   46.30    2.60
   2  -5   4   47.10    3.10
  -2  -5  -4   51.09    3.10
  -2   5   4   49.99    2.50
   2   5  -4   44.70    3.20
   2  -5   4   45.30    3.20
  -2   5   4   45.60    2.80
   2  -5  -4   55.29    3.00
  -2   5  -4   53.69    2.90
  -2  -5   4   52.69    3.10
   2   5   4   52.59    2.60
   2   5   4   47.40    3.00
   2   5   4   48.40    2.60
   2   5   4   46.70    2.70
   2  -5  -4   48.10    3.20
   2  -5  -4   52.09    3.20
   3  -5   4   30.50    2.50
   3   5  -4   27.50    2.80
   3  -5   4   31.40    2.50
  -3  -5  -4   29.60    2.60
  -3   5   4   29.90    2.30
   3   5  -4   28.10    2.30
  -3  -5  -4   35.70    2.40
  -3   5   4   30.50    2.30
  -3   5   4   29.60    2.10
   3   5   4   31.00    2.40
   3  -5  -4   31.40    2.20
   3  -5  -4   31.10    2.50
  -3  -5   4   30.50    2.60
   3   5   4   28.60    2.30
  -3   5  -4   30.30    2.30
  -3  -5   4   29.30    2.30
  -3  -5   4   35.70    2.60
   4   5  -4  200.08   10.40
   4  -5   4  190.38    9.50
  -4  -5  -4  209.98   10.50
   4   5  -4  212.88    9.90
  -4   5   4  195.78    9.50
   4  -5   4  199.98    9.70
   4   5  -4  212.68   10.00
  -4  -5  -4  200.48    9.80
   4  -5  -4  198.58   10.20
  -4   5  -4  202.88    9.90
  -4  -5   4  175.58    9.70
   4  -5  -4  206.68    9.60
   4   5   4  201.98    9.50
   4   5   4  194.78    9.60
   5   5  -4   30.90    3.50
   5   5  -4   34.40    2.70
  -5   5   4   33.00    3.20
  -5  -5  -4   36.10    2.70
   5  -5   4   35.80    2.90
   5   5  -4   36.00    2.90
  -5  -5  -4   31.90    3.00
   5  -5   4   35.10    2.90
   5  -5  -4   38.60    2.60
   5   5   4   30.20    3.10
   5  -5  -4   26.40    3.00
  -5   5  -4   29.60    3.00
   5   5   4   36.30    3.50
  -5  -5   4   27.00    3.10
  -6  -5  -4  230.38   11.00
   6  -5   4  223.58   11.10
  -6  -5  -4  218.98   11.50
   6  -5   4  221.78   11.00
  -6   5   4  210.48   11.00
   6   5  -4  217.48   11.10
   6   5  -4  213.08   11.80
   6   5   4  208.08   11.00
   6  -5  -4  233.38   10.80
  -6  -5   4  221.58   11.40
  -6   5  -4  232.48   11.30
   6  -5  -4  213.18   11.30
   6   5   4  230.18   11.70
  -7  -5  -4   63.19    4.80
   7   5  -4   57.39    5.70
   7   5  -4   59.39    4.40
  -7   5   4   65.89    4.70
   7  -5   4   60.99    4.50
   7  -5   4   58.09    4.50
  -7  -5  -4   64.09    4.40
   7   5   4   56.69    4.40
   7  -5  -4   59.89    4.70
  -7   5  -4   56.99    4.40
   7  -5  -4   66.99    4.30
   7   5   4   69.09    5.50
  -7  -5   4   64.79    4.90
   8  -5   4  108.19    6.80
  -8   5   4  108.09    6.90
   8  -5   4  114.39    6.80
  -8  -5  -4  100.49    6.40
   8   5  -4   95.29    6.40
  -8  -5  -4  106.79    6.90
   8   5   4   99.69    6.80
  -8  -5   4  111.99    7.10
   8  -5  -4  117.99    7.10
  -8   5  -4   98.99    6.70
   8   5   4   88.79    7.20
  -9  -5  -4   25.90    3.90
   9   5  -4   28.70    3.60
  -9   5   4   23.30    3.60
   9  -5   4   33.40    3.90
  -9  -5  -4   29.00    3.70
   9  -5  -4   27.20    3.90
   9   5   4   24.90    3.70
  -9   5  -4   23.80    3.60
  -9  -5   4   31.30    4.10
  10  -5   4   86.59    6.60
 -10   5   4   88.09    7.00
  10   5  -4   90.99    6.60
 -10   5  -4   89.49    6.80
  10  -5  -4   87.69    6.60
  10   5   4   94.49    7.00
   0   6  -4  266.27   13.10
   0   6  -4  302.17   12.10
   0  -6  -4  259.17   13.00
   0   6  -4  291.47   13.00
   0  -6   4  265.07   13.20
   0  -6  -4  268.67   12.80
   0  -6  -4  295.37   12.80
   0   6  -4  266.37   12.70
   0  -6  -4  294.07   12.80
   0  -6   4  306.17   13.20
  -1  -6  -4  340.97   15.60
  -1  -6  -4  345.47   16.00
   1   6  -4  320.87   15.60
   1   6  -4  351.06   15.70
  -1  -6  -4  338.67   15.30
   1  -6   4  346.47   15.50
   1  -6   4  336.87   15.80
  -1  -6  -4  347.97   15.50
   1   6  -4  338.27   15.80
   1  -6  -4  330.57   15.50
   1   6   4  349.47   14.70
   1  -6  -4  364.46   15.50
  -1   6  -4  302.97   15.60
  -1  -6   4  337.07   15.80
   1  -6  -4  316.67   15.60
   1   6   4  344.57   14.70
  -1   6  -4  396.96   15.10
  -1  -6   4  373.36   16.00
   1  -6  -4  406.56   15.80
  -1   6  -4  327.77   15.80
  -1   6  -4  355.86   15.60
  -2   6   4   54.29    2.80
  -2  -6  -4   53.29    3.90
   2   6  -4   60.69    3.80
   2   6  -4   55.69    3.70
  -2  -6  -4   62.49    3.60
   2   6  -4   52.89    3.60
   2  -6   4   59.49    3.70
   2  -6   4   57.49    3.10
  -2   6  -4   60.69    3.80
   2  -6  -4   57.59    3.60
   2   6   4   60.39    3.10
  -2   6  -4   55.69    3.90
   2   6   4   53.29    3.50
  -2   6  -4   60.29    3.40
   2   6   4   55.89    3.10
   2  -6  -4   67.09    3.60
  -2  -6   4   57.09    3.60
  -2  -6   4   51.19    3.70
  -2   6  -4   61.89    3.70
   2  -6  -4   59.29    3.40
   2  -6  -4   57.59    3.70
   2   6   4   60.99    3.20
  -3  -6  -4  563.34   24.30
   3  -6   4  520.75   24.00
   3   6  -4  552.94   24.70
  -3   6   4  582.24   23.60
  -3  -6  -4  553.84   24.90
   3   6  -4  541.45   24.40
   3  -6   4  545.45   24.20
  -3   6   4  557.24   23.90
   3  -6  -4  550.84   24.10
  -3  -6   4  511.05   24.20
  -3  -6   4  544.05   24.00
  -3   6  -4  535.95   24.20
   3   6   4  531.15   23.90
   3   6   4  520.95   23.70
   3  -6  -4  572.64   24.70
  -4  -6  -4    6.00    1.30
   4  -6   4    5.20    1.40
   4   6  -4    6.30    1.40
   4  -6   4    8.00    1.60
   4   6  -4    8.10    1.80
  -4   6   4    5.80    1.30
   4   6  -4    7.80    1.60
  -4  -6  -4    6.90    1.60
   4   6   4    5.20    1.40
  -4  -6   4    6.50    1.60
   4  -6  -4    6.80    1.30
   4   6   4    6.20    1.50
   4  -6  -4    6.90    1.60
  -4   6  -4    8.80    1.50
  -5  -6  -4  247.18   13.00
   5   6  -4  248.08   13.00
  -5  -6  -4  242.78   12.10
   5   6  -4  271.57   12.30
   5  -6   4  244.68   12.20
   5   6  -4  250.47   12.50
  -5   6   4  249.28   12.20
   5  -6   4  257.97   12.50
   5   6   4  254.67   12.20
   5  -6  -4  260.17   12.80
   5  -6  -4  265.97   12.20
   5   6   4  246.78   12.40
  -5   6  -4  270.67   12.50
  -5  -6   4  244.98   12.60
   6   6  -4   31.20    3.30
  -6  -6  -4   35.00    2.90
   6   6  -4   37.40    4.30
   6  -6   4   30.30    3.30
  -6  -6  -4   27.20    3.50
   6  -6   4   30.80    3.30
  -6   6   4   30.90    3.40
  -6   6  -4   34.80    3.50
   6  -6  -4   39.60    3.10
  -6  -6   4   32.60    3.70
   6   6   4   26.30    3.40
   6   6   4   34.60    3.40
   6  -6  -4   32.50    3.50
   7  -6   4    0.20    1.20
  -7  -6  -4    1.30    1.20
  -7   6   4    2.20    1.20
  -7  -6  -4    2.70    1.40
   7   6  -4    0.90    1.70
   7   6  -4    1.50    1.20
   7  -6   4    3.10    1.50
   7  -6  -4   -1.10    1.00
   7   6   4    1.30    1.00
   7   6   4    2.10    1.80
  -7   6  -4    1.30    1.20
  -7  -6   4    5.20    1.60
  -8   6   4    3.00    1.40
   8  -6   4    3.20    1.40
   8  -6   4    2.50    1.40
   8   6  -4    3.10    1.60
  -8  -6  -4    5.00    2.00
  -8  -6   4    1.30    1.40
   8   6   4    3.90    2.40
   8  -6  -4    3.80    1.70
  -8   6  -4    3.90    1.60
   8   6   4    2.70    1.60
  -9  -6  -4   -0.90    1.60
  -9   6   4   -0.50    1.20
   9  -6   4   -0.30    1.40
   9   6  -4   -1.10    1.40
   9  -6   4    0.40    1.60
   9  -6  -4    0.50    1.50
  -9   6  -4   -0.10    1.30
   9   6   4    1.40    5.10
   9   6   4    0.10    1.50
  -9  -6   4   -0.60    1.80
 -10   6   4   -2.10    1.60
  10  -6   4    3.00    2.00
  10   6  -4    2.90    2.20
  10   6   4    3.70    2.30
 -10   6  -4    0.00    1.50
  10  -6  -4   -0.80    1.30
 -10  -6   4    1.90    2.30
   0   7  -4    0.50    0.70
   0  -7  -4    0.30    0.60
   0   7  -4    0.10    0.70
   0   7  -4    0.60    0.70
   0  -7  -4   -0.20    0.50
   0  -7  -4    0.00    0.70
   0  -7   4   -0.60    0.70
   0  -7  -4    0.40    0.80
   0  -7   4    1.10    0.80
   1   7  -4   27.70    2.40
  -1  -7  -4   32.20    2.70
  -1  -7  -4   30.60    2.30
   1  -7   4   26.40    2.20
   1   7  -4   30.60    2.60
   1  -7   4   26.20    2.60
  -1  -7  -4   28.20    2.40
   1   7  -4   28.30    2.40
  -1  -7  -4   29.20    2.30
  -1  -7   4   28.70    2.50
   1   7   4   26.60    1.40
   1  -7  -4   30.80    2.50
   1  -7  -4   27.80    2.20
  -1   7  -4   32.30    2.40
   1  -7  -4   26.70    2.30
  -1   7  -4   28.20    2.90
  -1  -7   4   23.30    2.40
   1  -7  -4   24.30    2.30
  -1   7  -4   26.00    2.00
  -1   7  -4   32.10    3.10
   1   7   4   26.00    1.40
  -2  -7  -4   23.30    2.80
  -2   7   4   22.10    1.40
   2  -7   4   23.10    2.40
   2   7  -4   21.70    2.50
   2   7  -4   27.40    2.70
   2   7  -4   22.40    2.40
  -2  -7  -4   25.60    2.40
   2   7   4   24.70    2.60
   2   7   4   26.90    2.10
  -2   7  -4   23.40    2.40
   2  -7  -4   25.70    2.40
   2  -7  -4   22.30    2.30
  -2   7  -4   25.50    2.80
  -2  -7   4   25.20    2.70
  -2   7  -4   21.20    1.90
   2  -7  -4   26.70    2.80
   2   7   4   23.20    1.80
  -2   7  -4   21.40    2.60
   2   7   4   25.20    2.20
   2  -7  -4   29.40    2.30
  -2  -7   4   27.50    2.70
  -3  -7  -4  102.99    6.10
   3   7  -4   98.19    5.60
  -3  -7  -4   98.09    5.40
   3   7  -4   92.09    5.70
   3  -7   4   89.79    5.70
  -3   7   4   95.59    5.30
   3  -7   4   96.29    5.50
   3   7   4   92.79    5.10
   3  -7  -4   93.69    5.80
  -3  -7   4   87.09    5.60
  -3  -7   4   90.79    5.40
   3   7   4   95.79    5.40
  -3   7  -4  100.99    5.30
   3  -7  -4   96.09    5.30
   4   7  -4  197.58   10.30
   4   7  -4  200.18   10.60
   4   7  -4  208.28   10.10
  -4  -7  -4  194.08   10.60
  -4  -7  -4  208.18    9.90
   4  -7   4  196.78   10.20
  -4   7   4  191.98   10.00
   4  -7   4  220.88   10.60
   4   7   4  199.78   10.20
   4   7   4  209.98   10.20
   4  -7  -4  197.58    9.90
   4  -7  -4  216.68   10.60
  -4   7  -4  204.88   10.00
  -4  -7   4  198.88   10.60
  -5  -7  -4   62.69    4.10
   5   7  -4   52.19    4.10
  -5  -7  -4   57.99    4.50
   5   7  -4   55.89    4.70
   5  -7   4   55.19    4.10
   5  -7   4   57.59    4.30
  -5   7   4   56.19    4.10
   5  -7  -4   49.60    4.20
  -5  -7   4   50.19    4.30
  -5   7  -4   65.39    4.20
   5   7   4   59.09    4.20
   5  -7  -4   55.79    3.90
   5   7   4   55.99    4.30
  -6   7   4    1.60    1.10
   6   7  -4    2.20    1.40
   6   7  -4    2.80    1.90
   6  -7   4    1.50    1.10
   6  -7   4    1.60    1.20
  -6  -7  -4    3.20    1.50
   6   7   4    3.40    1.70
  -6  -7   4    1.50    1.30
   6   7   4    1.50    1.20
  -6   7  -4   -0.30    0.90
   6  -7  -4    1.60    1.10
   6  -7  -4    0.70    1.20
   7  -7   4   77.09    5.10
   7  -7   4   60.59    4.90
  -7   7   4   64.19    4.90
  -7  -7  -4   64.29    5.20
   7   7  -4   67.69    5.00
   7   7  -4   64.79    6.40
   7   7   4   56.99    4.70
  -7  -7   4   66.09    5.30
   7  -7  -4   65.19    5.00
  -7   7  -4   64.19    4.80
   7   7   4   53.29    5.80
   8   7  -4    2.00    2.50
   8  -7   4    7.10    2.20
  -8   7   4   10.40    2.40
   8  -7   4    7.30    2.00
  -8  -7  -4    3.40    1.80
   8   7  -4    1.90    1.60
   8  -7  -4    5.10    2.10
   8   7   4   10.90    2.50
   8   7   4    7.90    3.00
  -8   7  -4    8.30    2.10
  -8  -7   4   10.30    2.80
  -9  -7  -4   12.10    3.00
   9  -7   4   11.60    2.70
   9   7  -4   11.90    2.80
  -9   7   4   11.00    2.50
   9  -7   4    7.70    2.60
  -9   7  -4   12.60    3.00
   9   7   4   11.70    2.90
   9   7   4    8.70    3.60
  -9  -7   4   16.90    3.50
   9  -7  -4   15.70    3.10
 -10   7   4   29.00    4.30
  10   7  -4   36.30    4.90
 -10  -7  -4   30.90    5.00
  10  -7   4   34.40    4.70
 -10   7  -4   33.60    4.60
 -10  -7   4   41.80    5.40
  10   7   4   28.80    4.50
  10  -7  -4   42.70    5.20
   0  -8  -4  403.46   19.60
   0  -8  -4  413.66   19.30
   0  -8   4  463.05   20.70
   0   8  -4  392.46   19.10
   0   8  -4  447.86   19.80
   0  -8   4  453.75   20.90
   0  -8  -4  435.26   19.10
   0  -8  -4  466.25   19.40
   0   8  -4  436.56   19.60
   1   8  -4  295.67   14.20
  -1  -8  -4  296.97   14.10
  -1  -8  -4  285.07   14.50
   1  -8   4  323.47   14.60
   1   8  -4  287.97   14.00
   1  -8   4  310.77   14.90
   1   8  -4  303.27   14.40
  -1  -8  -4  317.57   13.90
   1   8   4  301.87   13.60
   1   8   4  318.17   14.60
  -1  -8   4  309.07   14.90
   1  -8  -4  309.87   14.10
  -1   8  -4  300.27   14.00
   1  -8  -4  311.67   14.00
  -1   8  -4  277.07   14.30
  -1  -8   4  336.07   15.10
  -1   8  -4  305.37   14.60
   1  -8  -4  304.67   14.30
   1   8   4  318.97   14.50
   1  -8  -4  328.77   14.40
   2  -8   4  380.76   18.20
  -2  -8  -4  426.46   18.70
  -2  -8  -4  404.86   19.60
  -2   8   4  410.86   16.90
   2   8  -4  419.96   19.10
   2   8  -4  420.36   19.20
   2   8  -4  426.16   19.10
  -2   8   4  388.86   18.00
   2  -8  -4  417.96   18.90
   2  -8  -4  403.86   18.90
  -2   8  -4  397.06   18.80
   2   8   4  396.26   17.40
  -2   8  -4  431.26   19.40
   2   8   4  395.26   18.20
  -2   8  -4  394.26   19.40
  -2  -8   4  403.36   18.60
  -2  -8   4  387.56   18.30
   2  -8  -4  447.96   19.40
   3   8  -4  257.27   12.40
  -3   8   4  257.77   11.80
   3  -8   4  236.18   12.20
   3  -8   4  243.18   12.00
  -3  -8  -4  273.07   13.00
   3   8  -4  240.08   12.40
  -3  -8  -4  264.47   12.10
   3   8   4  239.98   11.40
  -3  -8   4  220.58   12.10
  -3   8  -4  249.58   12.60
  -3  -8   4  247.58   12.00
  -3   8  -4  267.87   12.00
  -3   8  -4  243.38   12.70
   3   8   4  244.18   11.90
   3  -8  -4  267.27   12.20
   3  -8  -4  218.48   12.40
  -3   8  -4  251.57   12.30
  -4  -8  -4   73.89    5.30
   4   8  -4   74.89    4.80
   4  -8   4   67.09    5.00
  -4   8   4   73.59    4.60
   4  -8   4   71.59    4.70
   4   8  -4   63.59    4.70
   4   8  -4   70.99    5.10
   4  -8  -4   74.19    5.10
   4  -8  -4   72.29    4.50
  -4   8  -4   68.29    4.50
   4   8   4   71.09    4.60
  -4  -8   4   63.29    5.00
   4   8   4   69.69    4.70
   5   8  -4  137.09    8.10
   5   8  -4  135.89    7.70
   5  -8   4  127.29    7.40
  -5  -8  -4  120.39    7.90
  -5   8   4  126.89    7.30
   5  -8   4  142.59    7.90
   5   8   4  132.39    7.50
  -5   8  -4  125.79    7.30
   5  -8  -4  139.49    7.30
  -5  -8   4  125.49    7.90
   5  -8  -4  134.49    7.90
   5   8   4  121.29    7.40
  -6  -8  -4    2.70    1.60
   6  -8   4    4.70    1.60
   6   8  -4    2.20    1.80
   6  -8   4    2.70    1.50
  -6   8   4    3.80    1.50
   6   8  -4    1.60    1.40
   6  -8  -4    1.80    1.40
   6   8   4    1.50    1.30
  -6   8  -4    1.00    1.20
   6   8   4    3.60    1.90
  -6  -8   4    1.90    1.50
   7  -8   4   46.60    4.60
   7  -8   4   31.30    4.10
   7   8  -4   43.90    5.20
   7   8  -4   38.60    4.40
  -7   8   4   43.60    4.60
  -7  -8  -4   43.90    5.00
   7   8   4   38.30    4.20
   7  -8  -4   38.00    4.60
   7   8   4   42.90    4.80
  -7   8  -4   44.80    4.50
  -7  -8   4   36.30    4.60
   8   8  -4    4.30    1.90
   8   8  -4    2.20    2.70
   8  -8   4    1.60    1.60
  -8  -8  -4    2.70    2.10
  -8   8   4    2.10    1.60
   8  -8   4    1.40    1.80
   8   8   4    0.00    1.30
  -8   8  -4    1.90    1.50
  -8  -8   4    1.70    2.00
   8   8   4    3.60    2.50
   8  -8  -4    1.00    1.60
   9  -8   4    7.50    2.60
   9   8  -4    6.30    2.40
   9  -8   4    5.70    2.50
  -9   8   4    9.50    2.40
  -9  -8  -4    6.60    2.60
   9   8   4    5.20    3.00
  -9  -8   4    5.80    2.50
   9   8   4    1.70    2.20
   9  -8  -4    6.30    2.30
  -9   8  -4   10.20    2.70
   0   9  -4    0.10    0.90
   0   9  -4    0.20    0.80
   0   9  -4   -0.60    0.70
   0  -9  -4    1.30    1.00
   0  -9   4    1.40    1.10
   0  -9   4    1.80    1.10
   0  -9  -4   -0.70    0.90
   0  -9  -4    0.30    0.90
   0  -9  -4    0.30    1.00
  -1  -9  -4   33.70    3.00
   1   9  -4   27.70    3.00
   1   9  -4   28.40    3.10
   1   9  -4   30.20    3.20
  -1  -9  -4   32.70    3.60
  -1  -9  -4   37.50    3.10
   1  -9   4   32.50    3.30
  -1   9  -4   27.10    3.10
   1   9   4   30.10    2.90
  -1  -9   4   29.70    3.20
  -1   9  -4   26.90    3.20
   1  -9  -4   38.90    3.10
   1   9   4   28.50    2.90
  -1  -9   4   29.20    3.20
   1  -9  -4   27.70    3.10
  -1   9  -4   33.00    2.70
   1   9   4   31.20    1.90
   1  -9  -4   28.80    2.80
   1  -9  -4   29.80    3.00
  -2  -9  -4   12.30    2.40
   2   9  -4    7.80    1.70
  -2   9   4    9.00    1.60
   2   9  -4    7.70    1.80
   2  -9   4    6.50    1.60
   2   9  -4    6.70    1.70
  -2   9  -4    8.20    1.90
  -2   9  -4    9.70    1.70
   2   9   4    8.90    1.80
   2  -9  -4    9.20    1.90
  -2  -9   4    7.10    1.90
  -2  -9   4    7.00    1.60
   2  -9  -4   14.10    2.00
   2   9   4    8.70    1.30
  -2   9  -4    7.20    1.70
  -3   9   4   19.50    2.40
  -3  -9  -4   19.00    2.90
   3  -9   4   16.80    2.50
   3   9  -4   26.70    3.00
   3   9  -4   24.20    3.00
   3  -9  -4   22.60    2.70
  -3   9  -4   22.50    2.70
  -3   9  -4   21.20    3.00
  -3   9  -4   22.00    2.90
   3   9   4   16.40    2.40
   3   9   4   20.60    2.20
  -3  -9   4   18.40    2.70
  -3  -9   4   21.40    2.80
   3  -9  -4   15.80    2.60
   4   9  -4   -0.40    1.30
   4  -9   4    0.30    1.20
  -4   9   4    0.60    0.90
   4  -9   4    2.40    1.50
  -4  -9  -4    0.00    1.30
   4   9  -4    1.70    1.30
   4   9   4    1.40    1.20
   4  -9  -4    1.50    1.30
   4  -9  -4    1.10    1.20
   4   9   4    1.50    1.10
  -4  -9   4   -0.30    1.40
   5  -9   4   85.89    5.80
  -5  -9  -4   91.69    6.50
   5   9  -4   91.89    6.10
  -5   9   4   85.99    5.70
   5   9  -4   90.89    6.40
   5  -9   4   98.79    6.40
  -5  -9   4   77.79    6.10
   5   9   4   89.29    5.90
  -5   9  -4   94.69    5.80
   5  -9  -4   87.69    6.30
   5   9   4   88.79    5.90
  -6   9   4   26.60    3.40
   6   9  -4   28.10    3.60
   6  -9   4   29.60    3.80
   6  -9   4   31.10    3.80
   6   9  -4   28.30    4.10
  -6  -9  -4   30.60    4.00
  -6   9  -4   23.30    3.20
   6  -9  -4   29.30    3.80
   6   9   4   33.80    4.10
  -6  -9   4   25.20    3.70
   6   9   4   25.70    3.50
   7   9  -4   29.10    3.90
   7  -9   4   30.60    4.10
   7  -9   4   34.70    4.10
  -7   9   4   32.20    3.90
  -7  -9  -4   47.50    5.50
   7   9  -4   44.00    5.40
   7  -9  -4   33.80    4.40
   7   9   4   37.60    4.60
  -7   9  -4   36.00    4.10
   7   9   4   31.90    3.90
  -7  -9   4   37.50    4.80
   8   9  -4    2.10    2.80
   8  -9   4    8.40    2.60
   8  -9   4    8.00    2.50
   8   9  -4    7.90    2.40
  -8  -9  -4    7.70    2.90
  -8   9   4    6.60    2.20
   8  -9  -4    8.80    2.70
   8   9   4    8.90    2.30
  -8  -9   4    6.40    2.50
  -8   9  -4    9.70    2.40
   8   9   4    5.30    2.80
   9  -9   4   24.80    4.00
  -9  -9  -4   35.90    5.00
   9  -9   4   22.10    3.90
  -9   9   4   22.30    3.70
   9   9  -4   19.80    3.70
   9  -9  -4   19.80    3.90
  -9  -9   4   30.10    4.90
   9   9   4   26.30    5.00
   9   9   4   25.20    4.40
  -9   9  -4   19.40    3.60
   0  10  -4  712.93   31.10
   0  10  -4  685.83   30.80
   0 -10   4  722.63   31.70
   0 -10   4  693.93   31.90
   0 -10  -4  699.73   30.60
   0  10   4  737.23   31.80
   0  10  -4  662.03   30.20
   0 -10  -4  668.93   30.90
   0  10   4  687.83   31.50
   1  10  -4   21.90    2.70
   1  10  -4   23.40    2.90
  -1 -10  -4   26.00    3.40
  -1 -10  -4   20.90    2.80
   1 -10   4   20.60    2.90
   1  10  -4   27.80    3.40
   1 -10  -4   23.90    2.90
   1 -10  -4   25.90    2.80
  -1  10  -4   19.20    2.70
   1 -10  -4   31.30    3.40
  -1 -10   4   23.20    3.00
  -1  10  -4   21.80    2.60
  -1  10  -4   21.60    3.10
   1 -10  -4   26.10    3.20
  -1 -10   4   19.40    2.80
   1  10   4   23.20    1.70
  -2 -10  -4  188.18   10.70
   2  10  -4  188.18   10.00
   2  10  -4  199.28   10.30
  -2  10   4  185.28    9.90
   2 -10   4  197.88   10.50
   2  10  -4  185.98   10.30
  -2  10  -4  218.88   10.70
   2 -10  -4  205.08   10.10
   2  10   4  194.78   10.40
  -2 -10   4  193.68   10.50
   2 -10  -4  210.88   10.60
  -2  10  -4  184.68    9.80
   2  10   4  201.38    9.40
  -2  10  -4  176.28   10.40
  -2 -10   4  214.68   10.90
  -3  10   4   20.30    2.70
  -3 -10  -4   17.90    3.10
   3 -10   4   19.00    2.80
   3  10  -4   21.00    3.00
   3  10  -4   19.30    2.90
   3 -10  -4   21.60    2.70
   3  10   4   21.80    2.40
  -3  10  -4   15.00    2.60
  -3 -10   4   23.10    3.30
   3 -10  -4   24.50    3.30
   3  10   4   20.80    2.90
  -3  10  -4   19.30    2.70
  -3  10  -4   22.40    3.30
  -3 -10   4   19.40    2.80
   4  10  -4  101.69    6.70
   4 -10   4   94.49    6.30
   4  10  -4   96.69    6.50
  -4 -10  -4   93.59    7.00
  -4  10   4   92.69    6.00
  -4 -10   4   95.49    6.80
  -4  10  -4   96.39    6.80
   4  10   4  103.19    6.10
   4 -10  -4  104.39    6.20
   4 -10  -4   95.29    6.60
  -4  10  -4  100.79    6.40
   4  10   4  103.39    6.50
  -4  10  -4   98.89    6.60
  -5 -10  -4   30.80    4.10
  -5  10   4   29.60    3.40
   5 -10   4   29.40    4.00
   5 -10   4   32.20    3.70
   5  10  -4   28.90    4.00
   5  10  -4   30.30    3.80
  -5  10  -4   27.50    3.70
  -5  10  -4   34.40    4.30
   5 -10  -4   33.00    4.20
   5  10   4   35.30    3.90
  -5 -10   4   31.00    4.10
  -5  10  -4   31.10    3.80
   5  10   4   29.90    3.70
   6  10  -4   43.10    5.20
  -6 -10  -4   40.90    5.30
   6 -10   4   50.19    5.20
   6 -10   4   40.70    4.40
  -6  10   4   33.00    4.00
   6  10  -4   38.90    4.60
   6  10   4   48.10    4.90
   6  10   4   35.70    4.50
   6 -10  -4   51.09    5.40
  -7 -10  -4    1.50    1.80
   7 -10   4    5.20    2.00
   7 -10   4    0.80    1.60
  -7  10   4    1.60    1.50
   7  10  -4    5.70    2.20
   7  10  -4    2.60    2.50
   7  10   4   -0.30    2.10
   7 -10  -4    2.20    1.70
  -7  10  -4    1.20    2.00
  -7 -10   4    2.30    1.90
   7  10   4    3.90    1.80
   8 -10   4    6.30    2.40
  -8 -10  -4    8.20    3.00
   8 -10   4    8.20    2.70
   8  10  -4    6.70    2.60
  -8  10   4    3.20    1.90
   8  10  -4    6.40    3.30
   8  10   4    6.40    2.00
  -8 -10   4    9.60    2.80
  -8  10  -4   12.40    3.00
   8 -10  -4    8.00    2.60
   8  10   4    5.20    3.20
   0  11   4   -0.20    0.50
   0  11  -4    0.30    0.90
   0 -11  -4   -0.70    1.20
   0 -11  -4   -1.10    1.20
   0  11  -4    0.80    1.20
   0 -11   4   -0.30    1.30
   0  11   4   -0.20    1.10
   0  11  -4    1.20    1.30
   0  11   4    0.20    1.10
  -1 -11  -4   30.70    3.50
  -1 -11  -4   27.00    3.60
   1  11  -4   27.00    3.10
   1  11  -4   26.00    3.40
   1  11  -4   32.20    3.60
   1 -11   4   29.60    3.70
   1  11   4   29.30    2.10
  -1 -11   4   25.30    3.40
  -1  11  -4   26.90    3.60
   1 -11  -4   27.90    3.30
  -1  11  -4   29.20    3.50
  -1  11  -4   30.10    3.10
  -1 -11   4   21.90    3.20
   1 -11  -4   23.70    3.20
   2  11  -4   15.50    2.70
   2 -11   4   13.40    2.60
   2  11  -4   15.70    2.60
  -2 -11  -4   14.20    2.90
   2  11  -4   11.50    2.30
   2 -11  -4   13.40    2.40
   2  11   4   18.90    2.80
  -2 -11   4   14.70    2.80
  -2  11  -4   14.10    2.30
  -2 -11   4   18.30    2.80
   2 -11  -4   12.10    2.40
  -2  11  -4   12.10    2.60
   2  11   4   15.40    1.90
  -2  11  -4   15.10    2.70
   3  11  -4    8.90    2.30
   3 -11   4    6.90    2.10
  -3 -11  -4    9.20    2.50
  -3  11  -4    8.00    2.20
   3 -11  -4    7.30    2.10
   3 -11  -4    9.00    2.40
  -3  11  -4    7.70    2.20
  -3 -11   4    9.10    2.20
  -3 -11   4    7.90    2.40
   3  11   4   10.90    2.30
  -3  11  -4    8.70    2.00
   3  11   4    8.50    1.70
   4  11  -4   21.10    3.40
  -4  11   4   17.40    2.70
   4  11  -4   17.50    3.20
   4 -11   4   20.50    3.10
  -4 -11  -4   12.60    2.90
   4  11   4   18.50    2.90
   4  11   4   19.20    2.70
  -4  11  -4   16.90    2.90
   4 -11  -4   17.00    3.00
  -4  11  -4   18.90    2.90
  -4  11  -4   20.90    3.60
  -4 -11   4   17.70    3.20
  -5  11   4   16.60    2.80
   5  11  -4   22.30    3.70
   5  11  -4   18.80    3.20
  -5 -11  -4    9.20    3.00
   5 -11   4   13.60    2.70
   5  11   4   10.80    2.30
   5  11   4   17.00    2.90
  -5  11  -4   12.60    2.80
  -5  11  -4   12.70    2.80
  -5  11  -4   13.50    2.90
   5 -11  -4    8.90    2.40
  -5 -11   4   15.70    3.40
   6  11  -4    5.20    2.20
  -6  11   4    2.80    1.60
  -6 -11  -4    4.40    2.40
   6  11  -4   -0.50    2.30
   6 -11   4    3.80    2.00
  -6  11  -4    4.20    2.30
  -6 -11   4    1.90    2.00
  -6  11  -4    3.00    2.10
   6  11   4    4.20    1.80
   6  11   4    1.80    2.10
   6 -11  -4    6.40    2.20
  -6  11  -4    0.00    1.80
  -7  11   4   44.80    5.10
  -7 -11  -4   41.80    5.60
   7 -11   4   51.09    5.50
   7  11  -4   49.99    6.30
   7  11  -4   46.60    5.50
   7  11   4   47.60    5.80
  -7  11  -4   58.29    6.30
  -7 -11   4   47.50    5.90
   7  11   4   44.90    5.10
   7 -11  -4   48.60    6.00
  -7  11  -4   50.49    5.90
  -7  11  -4   60.19    6.40
   0 -12  -4   55.79    4.60
   0  12   4   57.49    3.20
   0 -12   4   50.99    5.10
   0  12  -4   57.29    4.80
   0  12  -4   54.59    4.30
   0  12  -4   60.69    5.10
   1  12  -4   15.40    2.90
  -1  12   4   17.30    1.60
   1  12  -4   18.20    2.70
   1  12  -4   18.80    3.20
   1 -12   4   17.60    3.10
  -1 -12  -4   18.50    3.10
  -1 -12  -4   17.20    3.20
  -1  12   4   18.20    3.10
  -1  12   4   20.40    3.00
  -1  12  -4   17.00    3.20
  -1  12  -4   21.70    2.80
  -1 -12   4   17.40    3.10
  -1  12  -4   23.40    3.40
  -1 -12   4   23.40    3.60
   1  12   4   17.70    1.90
   1 -12  -4   18.20    2.80
   2  12  -4   42.40    4.60
   2 -12   4   38.10    4.30
  -2 -12  -4   36.10    4.60
   2  12  -4   39.70    4.40
   2  12  -4   38.20    4.10
  -2 -12   4   37.50    4.50
   2 -12  -4   41.50    4.40
  -2 -12   4   39.40    4.60
  -2  12  -4   32.40    4.20
   2  12   4   35.30    3.00
  -2  12  -4   34.10    4.40
  -2  12  -4   36.10    3.90
   2 -12  -4   42.30    4.70
   2  12   4   39.30    4.40
   3  12  -4   16.60    2.90
   3 -12   4   11.20    2.60
  -3 -12  -4   13.70    3.10
   3 -12  -4   14.60    2.80
  -3  12  -4    7.70    2.10
   3  12   4   14.40    2.70
  -3 -12   4   11.60    2.70
  -3  12  -4   11.50    2.70
  -3  12  -4   11.20    2.80
   3  12   4   12.60    2.10
  -3 -12   4   11.90    2.40
   4  12  -4    5.30    2.20
   4 -12   4    7.30    2.30
   4  12  -4    7.20    2.30
  -4 -12  -4    5.70    2.60
   4 -12  -4    6.30    2.20
  -4  12  -4    5.30    2.20
   4  12   4    5.60    2.00
  -4  12  -4    5.30    1.90
  -4 -12   4    7.30    2.50
  -4  12  -4    5.40    2.40
   4  12   4   10.30    2.20
  -5 -12  -4    6.10    2.70
   5  12  -4   10.40    2.70
   5 -12   4   12.20    2.70
   5  12  -4    5.30    2.80
   5  12   4    8.40    2.30
   5  12   4    8.30    2.50
  -5  12  -4    7.90    2.50
  -5  12  -4    7.90    2.30
  -5  12  -4    3.90    2.20
   5 -12  -4    5.90    2.40
  -5 -12   4    9.70    2.90
  -6  12   4   24.20    4.60
   6  12  -4   17.80    4.20
   6  12  -4   13.40    3.30
  -6 -12  -4   17.10    4.30
   6 -12   4   21.80    3.60
   6  12   4   20.30    3.90
   6 -12  -4   18.20    3.70
  -6  12  -4   20.60    4.10
   6  12   4   18.20    3.30
  -6 -12   4   14.10    3.60
  -6  12  -4   21.00    4.20
  -6  12  -4   21.70    3.80
   0 -13  -4    0.30    1.60
   0  13  -4    0.10    1.50
   0 -13   4   -0.90    1.40
   0  13  -4   -2.50    1.30
   0  13   4    0.20    0.80
   0  13  -4   -1.30    1.30
   1  13  -4    2.60    2.00
  -1  13   4    1.50    0.90
   1 -13   4    2.50    1.70
  -1 -13  -4    3.80    2.60
   1  13  -4    0.50    1.40
  -1  13   4    1.60    2.40
   1  13  -4    0.90    1.90
  -1 -13  -4   -0.50    1.60
  -1  13   4   -2.20    1.90
  -1 -13   4    2.10    1.90
  -1  13  -4   -0.30    1.90
  -1  13  -4    1.20    1.90
   1  13   4    1.30    1.00
  -1  13  -4    2.30    1.40
   1 -13  -4    1.30    1.80
  -2  13   4    6.00    2.20
   2  13  -4    4.50    1.90
  -2  13   4    2.90    1.10
  -2 -13  -4    5.60    2.50
  -2  13   4    6.00    2.40
   2 -13   4    6.30    2.40
   2 -13  -4    3.20    2.30
  -2  13  -4    4.50    2.30
  -2  13  -4    2.00    1.90
   2  13   4    4.40    1.80
  -2 -13   4    2.80    2.20
  -2 -13   4    4.40    2.00
   2  13   4    4.40    1.40
  -2  13  -4    4.50    1.80
   3 -13   4   11.10    2.80
   3  13  -4   12.00    2.70
  -3 -13  -4   12.60    3.30
  -3 -13   4    8.80    2.50
   3  13   4   11.20    2.50
   3 -13  -4   14.50    3.20
   3  13   4   12.40    2.20
  -3  13  -4   16.00    3.30
  -3 -13   4   13.20    3.10
  -3  13  -4   15.70    2.70
  -3  13  -4    9.30    2.70
  -4 -13  -4    0.20    2.00
   4 -13   4    0.70    1.90
   4  13  -4    0.50    1.90
   4  13  -4   -0.10    2.40
   4 -13  -4    1.00    2.00
   4  13   4    1.50    1.70
   4  13   4    1.80    1.70
  -4 -13   4   -1.70    2.00
  -4  13  -4   -0.10    1.60
  -4  13  -4    2.50    1.60
  -4  13  -4    0.70    1.70
   5  13  -4   10.10    3.00
  -5 -13  -4    7.70    3.40
   5 -13   4    8.60    2.90
   5  13  -4   12.20    3.80
   5 -13  -4    7.60    2.90
  -5  13  -4    7.80    2.50
   5  13   4   10.10    2.70
  -5 -13   4    7.10    3.10
  -5  13  -4    7.20    2.70
  -5  13  -4   11.00    2.80
   5  13   4    4.40    2.00
   0  14  -4   66.89    5.20
   0  14   4   63.39    4.00
   0  14  -4   71.59    6.80
   0 -14  -4   59.89    5.90
   0 -14   4   70.99    6.60
   0  14  -4   70.69    7.00
   1  14  -4    4.90    2.20
  -1  14   4    5.50    1.30
   1 -14   4    3.00    2.50
   1 -14  -4   14.60    3.00
   1  14   4    7.30    2.50
  -1  14  -4    6.70    2.10
  -1  14  -4    4.80    2.50
  -1  14  -4    7.80    2.50
   1  14   4    7.30    1.50
  -1 -14   4    0.50    1.90
  -2  14   4   19.90    3.60
  -2  14   4   19.30    2.30
   2  14  -4   24.50    3.40
  -2 -14  -4   24.40    4.50
   2 -14   4   13.30    3.30
  -2  14   4   29.50    4.40
  -2  14  -4   33.40    4.70
  -2  14  -4   23.00    3.80
   2  14   4   22.50    3.60
  -2 -14   4   14.50    3.50
   2  14   4   20.80    2.60
  -2  14  -4   20.20    3.10
  -3 -14  -4    4.20    3.10
   3  14  -4   10.40    2.60
  -3  14   4    8.70    1.70
   3 -14   4    8.00    2.90
  -3  14   4   13.90    3.00
  -3  14   4    9.90    3.00
   3  14  -4    6.90    2.30
  -3 -14   4    8.20    3.20
   3  14   4    6.40    2.30
  -3  14  -4    6.50    2.70
  -3  14  -4    8.40    2.40
  -3  14  -4   10.40    3.10
   3  14   4    5.40    1.90
   0   0   5    2.50    0.70
   0   0  -5    1.30    0.50
   0   0   5    1.50    0.50
   0   0  -5    1.10    0.40
   1   0   5    0.20    0.50
  -1   0  -5    0.00    0.40
   1   0  -5    0.70    0.30
  -1   0   5    0.00    0.30
  -1   0   5    0.80    0.60
   1   0  -5    0.40    0.40
   1   0   5    0.50    0.30
   1   0   5    0.80    0.50
   2   0  -5  394.46   18.40
   2   0  -5  435.86   18.30
  -2   0  -5  435.06   18.30
  -2   0  -5  428.06   18.40
  -2   0   5  453.05   19.40
   2   0   5  437.36   19.20
   3   0   5    0.10    0.50
  -3   0   5    0.00    0.40
   3   0  -5   -0.10    0.30
   3   0   5    1.60    0.90
  -3   0  -5    0.10    0.50
  -3   0   5   -0.30    0.40
   3   0  -5   -0.10    0.40
   3   0   5   -0.20    0.30
  -3   0  -5    0.60    0.50
  -4   0   5   39.10    2.50
  -4   0   5   36.20    2.60
   4   0   5   38.40    2.20
   4   0   5   37.30    2.60
   4   0  -5   37.10    2.20
   4   0   5   40.50    3.10
  -4   0  -5   39.60    2.50
  -4   0  -5   33.70    2.50
   4   0  -5   35.90    3.10
   4   0  -5   34.10    2.50
   5   0  -5    0.20    0.50
  -5   0  -5    0.40    0.60
  -5   0  -5   -0.40    0.60
   5   0   5   -0.10    1.20
   5   0   5    0.30    0.70
   5   0   5    0.50    0.50
   5   0  -5    0.90    1.70
  -5   0   5   -0.80    0.50
   5   0  -5    0.00    0.60
  -5   0   5   -0.60    0.60
  -6   0  -5  111.19    6.20
  -6   0  -5  114.59    6.00
   6   0  -5  102.89    6.10
   6   0   5  116.79    7.30
  -6   0   5  121.49    6.50
   6   0   5  126.59    6.70
   6   0  -5  116.69    5.90
  -6   0   5  115.69    6.40
  -7   0  -5    0.50    1.00
   7   0  -5    0.90    1.00
   7   0  -5    0.30    0.90
  -7   0   5    0.00    1.00
   7   0   5    1.90    1.20
  -7   0   5   -0.30    1.00
   8   0   5  186.58   10.00
   8   0  -5  172.08    9.60
  -8   0  -5  177.98    9.80
   8   0  -5  193.58    9.50
  -8   0   5  182.18    9.80
  -9   0   5    1.90    1.50
   9   0   5    0.80    1.50
   9   0  -5   -0.90    1.40
   9   0  -5   -1.00    1.60
  -9   0  -5   -0.50    1.10
 -10   0   5   40.80    4.60
  10   0   5   50.79    5.40
 -10   0  -5   55.69    5.60
 -11   0  -5    0.00    2.20
 -11   0   5   -0.90    2.00
  11   0   5    0.50    2.00
   0  -1   5  459.25   19.50
   0  -1  -5  511.95   21.40
   0   1   5  435.96   19.80
   0  -1   5  461.95   19.80
   0  -1  -5  491.75   21.50
   0   1   5  481.15   19.70
  -1   1   5 2299.57  100.89
  -1  -1  -5 2655.03  107.39
   1  -1   5 2407.66  100.79
  -1  -1  -5 2522.65  107.29
   1   1  -5 2513.45  107.49
  -1   1   5 2452.55  100.89
   1  -1   5 2540.95  100.79
   1   1  -5 2542.15  107.29
  -1   1  -5 2495.05  107.19
   1  -1  -5 2469.55  107.19
  -1  -1   5 2416.56  101.39
   1   1   5 2474.75  100.69
  -1   1  -5 2562.14  107.19
  -1  -1   5 2188.88  100.99
   1   1   5 2489.25  100.99
   1  -1  -5 2731.53  107.29
  -1   1  -5 2503.85  107.09
  -1   1  -5 2623.24  107.49
   2   1  -5  327.17   14.10
   2   1  -5  332.57   13.70
   2  -1   5  291.57   13.60
   2   1  -5  314.17   14.20
   2  -1   5  317.27   13.30
   2  -1   5  302.97   13.40
  -2  -1  -5  302.97   14.00
  -2   1   5  297.97   13.40
  -2  -1  -5  323.77   14.10
  -2   1  -5  307.97   14.20
   2   1   5  294.57   13.30
  -2  -1   5  336.87   13.70
  -2  -1   5  303.87   13.20
  -2   1  -5  313.37   13.80
   2  -1  -5  319.07   14.10
   2  -1  -5  317.07   14.00
   2   1   5  289.87   13.60
  -2   1  -5  319.17   13.80
  -2   1  -5  317.97   13.90
  -3  -1  -5   14.30    1.50
   3  -1   5   19.70    2.20
   3   1  -5   14.20    1.20
  -3   1   5   18.30    1.50
   3   1  -5   14.30    1.50
   3   1  -5   18.10    2.00
  -3   1   5   16.30    1.60
   3  -1   5   17.60    1.30
   3  -1   5   18.10    1.40
  -3  -1  -5   15.90    1.40
  -3  -1   5   15.80    1.70
  -3   1  -5   12.70    1.40
   3  -1  -5   13.60    1.60
   3   1   5   18.90    1.80
   3  -1  -5   14.10    1.10
  -3  -1   5   18.60    1.40
   3   1   5   17.60    1.90
   4  -1   5   53.29    3.70
   4   1  -5   45.70    3.00
   4   1  -5   46.60    3.50
   4  -1   5   47.20    2.80
  -4   1   5   49.90    3.00
   4  -1   5   50.19    3.20
  -4   1   5   52.69    3.10
   4   1  -5   48.70    2.90
  -4  -1  -5   48.60    3.10
  -4  -1  -5   43.30    3.00
   4  -1  -5   53.59    2.80
   4   1   5   51.99    2.60
  -4  -1   5   47.50    3.20
  -4  -1   5   49.40    2.90
  -4   1  -5   53.59    2.80
   4   1   5   50.39    3.50
   4   1   5   47.20    3.10
   4  -1  -5   47.90    3.10
  -4   1  -5   47.30    3.10
   5  -1   5   98.99    5.10
   5  -1   5  106.39    6.10
   5   1  -5   97.99    5.50
  -5   1   5   95.79    5.40
  -5  -1  -5   96.39    5.40
   5   1  -5  103.79    5.30
  -5   1   5  103.99    5.30
  -5  -1  -5   94.19    5.50
   5   1  -5  104.09    6.10
   5  -1   5   99.79    5.50
   5  -1  -5  103.59    5.20
   5   1   5   95.69    5.90
  -5   1  -5  109.09    5.20
  -5   1  -5   95.49    5.50
   5  -1  -5  101.89    5.60
  -5  -1   5   99.39    5.50
  -5  -1   5  100.79    5.20
   5   1   5   93.19    5.40
   6  -1   5   23.00    2.30
   6   1  -5   21.00    2.40
  -6   1   5   21.10    2.40
   6  -1   5   26.40    2.70
  -6   1   5   21.30    2.30
   6   1  -5   23.70    2.40
  -6  -1  -5   24.80    2.50
  -6  -1  -5   24.50    2.70
   6   1   5   27.20    3.40
   6   1   5   29.80    2.90
  -6  -1   5   25.20    2.50
   6  -1  -5   23.60    2.20
  -6  -1   5   24.40    2.60
  -6   1  -5   27.10    2.80
   6  -1  -5   18.60    2.30
   7   1  -5   58.39    4.00
  -7   1   5   57.29    4.10
   7  -1   5   56.39    4.20
  -7  -1  -5   50.69    4.00
   7   1  -5   57.09    3.90
   7  -1  -5   58.99    3.80
   7  -1  -5   57.29    4.10
  -7  -1   5   59.89    4.10
  -7   1  -5   50.59    4.00
   7   1   5   61.39    4.30
  -7  -1   5   56.39    4.10
   8  -1   5    4.40    1.60
   8   1  -5    5.10    1.50
   8   1  -5    8.80    1.90
  -8  -1  -5    6.90    2.00
  -8   1   5    7.40    1.90
   8  -1  -5    5.80    1.70
   8  -1  -5    7.00    1.70
  -8   1  -5    8.90    2.10
  -8  -1   5    5.80    1.70
   8   1   5    3.80    1.60
  -9  -1  -5   32.10    3.80
   9   1  -5   44.10    4.20
  -9   1   5   38.80    4.30
   9  -1   5   31.90    4.00
   9  -1  -5   31.60    3.70
  -9   1  -5   30.80    3.90
   9   1   5   35.40    4.20
  -9  -1   5   35.10    3.90
 -10   1   5   10.00    2.70
 -10  -1  -5    6.70    2.20
  10  -1   5   14.80    3.00
 -10   1  -5   12.20    2.80
 -10  -1   5    9.00    2.50
  10   1   5   10.10    2.60
 -11   1   5   14.00    3.60
  11  -1   5   11.00    3.00
 -11  -1  -5    9.00    2.90
  11   1   5   15.90    3.40
 -11   1  -5    9.10    2.80
 -11  -1   5   10.00    3.00
   0   2   5    0.10    0.30
   0   2  -5    0.10    0.50
   0   2   5    0.00    0.40
   0  -2   5   -0.50    0.30
   0   2  -5    0.10    0.40
   0  -2  -5    0.30    0.30
   0  -2  -5    0.80    0.40
   0  -2   5    0.30    0.40
   0   2  -5   -0.80    0.40
   1  -2   5  173.08    7.70
   1  -2   5  157.18    7.60
   1   2  -5  178.58    8.00
   1   2  -5  167.78    8.10
  -1   2   5  165.38    7.60
  -1   2   5  170.78    7.80
  -1  -2  -5  172.78    8.10
   1   2   5  166.28    7.50
   1  -2  -5  174.68    7.90
  -1  -2   5  175.78    7.90
   1   2   5  177.58    7.70
   1  -2  -5  168.08    7.90
  -1   2  -5  174.68    7.70
  -1   2  -5  181.68    7.90
  -1   2  -5  174.28    7.90
  -1   2  -5  162.58    8.00
  -1  -2   5  171.48    7.60
   2  -2   5   73.09    3.50
   2   2  -5   80.29    4.00
  -2   2   5   70.89    3.70
   2   2  -5   76.79    4.20
  -2  -2  -5   69.19    4.00
  -2  -2  -5   78.09    3.90
   2  -2  -5   73.69    3.90
  -2   2  -5   70.89    3.70
  -2   2  -5   71.39    3.80
  -2  -2   5   72.89    3.60
   2   2   5   68.39    3.80
   2   2   5   68.39    3.70
  -2  -2   5   73.79    3.90
  -2  -2   5   73.89    3.50
  -2   2  -5   77.59    4.20
  -2   2  -5   69.79    3.80
   2  -2  -5   73.09    3.90
  -3   2   5   26.60    1.80
   3  -2   5   22.60    2.10
  -3   2   5   22.70    1.90
   3   2  -5   18.60    1.70
   3  -2   5   26.30    1.90
  -3  -2  -5   24.60    1.90
  -3  -2  -5   22.40    1.90
   3  -2   5   24.10    1.60
   3   2  -5   23.70    1.70
  -3   2  -5   23.40    1.80
  -3  -2   5   21.90    2.00
   3  -2  -5   22.80    1.90
   3  -2  -5   22.30    1.50
   3   2   5   23.00    1.90
  -3  -2   5   26.40    1.60
   3   2   5   25.20    2.10
   4   2  -5    6.00    1.10
  -4  -2  -5    4.80    1.10
   4  -2   5    8.10    1.20
   4  -2   5    5.70    1.20
   4  -2   5    7.10    1.70
   4  -2   5    8.50    0.90
   4   2  -5    6.60    1.00
   4   2  -5    3.70    1.30
  -4  -2  -5    5.00    1.10
  -4   2   5    6.70    1.20
  -4   2   5    6.90    1.10
  -4   2  -5    2.70    0.80
   4   2   5    6.90    1.40
   4  -2  -5    3.80    1.00
  -4  -2   5    3.80    1.10
   4  -2  -5    7.10    0.90
   4   2   5    5.30    1.10
  -4  -2   5    7.90    1.10
  -5  -2  -5    2.50    1.00
   5  -2   5    1.20    0.80
  -5  -2  -5    2.70    1.00
   5  -2   5    2.10    0.90
   5   2  -5    2.10    0.80
   5   2  -5    3.70    1.50
  -5   2   5    1.90    0.90
   5   2  -5    3.00    0.90
  -5   2   5    2.80    0.80
  -5  -2   5    3.40    0.90
  -5  -2   5    1.00    0.90
   5  -2  -5    1.70    0.70
   5   2   5    2.30    0.90
   5  -2  -5    3.20    1.10
   5   2   5    1.50    1.10
  -5   2  -5    1.70    0.80
   6  -2   5    7.70    1.60
   6   2  -5    7.00    2.30
  -6  -2  -5    5.30    1.30
  -6  -2  -5    8.60    1.60
   6   2  -5    7.50    1.50
   6  -2   5    6.70    1.30
  -6   2   5   11.20    1.90
   6   2  -5    6.10    1.30
   6  -2  -5    7.90    1.30
  -6  -2   5    6.20    1.50
  -6  -2   5    8.90    1.50
   6   2   5    8.00    2.00
   6  -2  -5    6.60    1.50
  -6   2  -5    6.00    1.50
   6   2   5    9.10    1.70
   7  -2   5   51.19    3.70
   7   2  -5   56.19    3.70
  -7  -2  -5   44.10    3.60
  -7   2   5   45.20    3.60
  -7  -2  -5   47.90    3.70
   7  -2   5   49.10    3.80
   7   2  -5   49.80    3.60
   7   2   5   43.00    3.60
  -7  -2   5   49.10    3.50
  -7   2  -5   46.60    3.70
   7   2   5   50.49    5.10
   7  -2  -5   43.10    3.40
  -7  -2   5   48.40    3.70
   7  -2  -5   46.70    3.70
  -8  -2  -5   11.80    2.10
   8   2  -5   17.00    2.50
  -8   2   5   12.30    2.40
   8  -2   5   16.10    2.60
  -8  -2   5   18.00    2.70
   8  -2  -5   12.90    2.20
   8  -2  -5   13.10    2.60
  -8   2  -5   15.90    2.40
  -8  -2   5   15.00    2.30
   8   2   5   15.80    2.60
   9   2  -5   38.70    3.90
  -9  -2  -5   36.30    4.20
   9  -2   5   29.40    3.80
  -9   2   5   32.60    3.90
  -9  -2   5   35.40    3.90
   9  -2  -5   28.20    3.60
  -9   2  -5   35.30    4.10
   9   2   5   33.70    4.10
 -10  -2  -5   20.50    3.40
  10  -2   5   14.00    3.00
 -10   2   5   12.10    2.90
  10   2  -5   18.70    4.80
  10   2   5   19.60    3.40
 -10   2  -5   18.10    3.20
  11  -2   5    4.10    2.60
 -11   2   5    4.90    2.50
 -11  -2  -5    6.40    2.70
 -11   2  -5    1.40    2.30
  11   2   5    5.40    2.70
   0   3  -5  101.69    5.40
   0  -3  -5  111.29    5.50
   0  -3   5   97.79    4.90
   0  -3  -5  106.99    5.30
   0  -3  -5  105.39    5.00
   0  -3  -5  117.49    5.20
   0   3   5   96.69    4.30
   0   3   5   98.19    4.40
   0   3  -5  109.89    5.40
   0  -3   5  109.19    5.00
  -1   3   5  112.69    5.20
  -1   3   5  111.69    5.60
   1   3  -5  125.29    6.00
   1  -3   5  127.69    5.50
  -1  -3  -5  126.69    5.80
   1   3  -5  114.39    5.80
  -1   3   5  110.49    5.20
   1  -3   5  116.39    5.70
  -1  -3  -5  113.89    5.50
  -1  -3  -5  118.39    6.00
  -1   3  -5  123.59    5.50
  -1   3  -5  115.69    5.90
   1   3   5  117.69    5.30
   1  -3  -5  117.99    5.40
   1  -3  -5  112.79    5.70
   1  -3  -5  119.59    5.80
   1   3   5  116.19    5.50
  -1  -3   5  119.29    5.80
  -1   3  -5  129.29    5.90
  -1   3  -5  113.49    5.90
  -1  -3   5  117.09    5.60
   2   3  -5  181.58    8.50
   2  -3   5  154.28    7.10
  -2  -3  -5  177.38    8.40
  -2   3   5  172.78    7.50
   2   3  -5  183.68    8.30
  -2  -3  -5  169.18    8.20
  -2   3   5  152.48    7.30
   2   3   5  165.68    7.50
  -2   3  -5  175.48    8.30
  -2   3  -5  163.88    8.00
   2  -3  -5  178.48    8.20
   2   3   5  156.48    7.50
  -2   3  -5  158.38    8.30
  -2  -3   5  156.48    7.70
  -2   3  -5  179.18    8.20
  -2  -3   5  158.88    7.40
   2  -3  -5  185.18    7.80
   2  -3  -5  169.38    8.30
   3   3  -5   32.00    2.30
  -3  -3  -5   35.20    2.60
   3   3  -5   30.50    2.10
  -3  -3  -5   30.00    2.20
   3  -3   5   31.70    2.30
  -3   3   5   35.50    2.20
  -3   3   5   29.40    2.20
   3  -3  -5   32.40    1.90
  -3  -3   5   30.80    2.50
   3  -3  -5   33.60    2.40
   3   3   5   31.90    2.50
  -3  -3   5   34.40    1.90
   3   3   5   30.80    2.30
  -3   3  -5   30.20    2.20
  -4   3   5  221.08   10.40
   4  -3   5  220.88   10.40
  -4   3   5  247.48   10.10
  -4  -3  -5  213.18   10.40
   4   3  -5  218.98   10.50
   4   3  -5  230.48   11.00
  -4  -3  -5  215.88   10.80
   4  -3   5  219.38   10.30
   4   3  -5  222.58   10.40
  -4   3  -5  218.58   10.50
   4   3   5  204.28   10.30
  -4  -3   5  214.88    9.80
   4   3   5  214.38   10.60
  -4  -3   5  203.08   10.50
   4  -3  -5  227.38   10.10
   4  -3  -5  236.08   10.80
   5  -3   5    6.70    1.30
   5   3  -5    7.00    1.90
   5   3  -5    8.30    1.40
   5   3  -5    8.80    1.50
  -5   3   5    7.90    1.50
   5  -3   5    6.00    1.30
  -5  -3  -5    8.70    1.40
  -5  -3  -5    9.80    1.70
   5   3   5    6.60    1.50
   5  -3  -5    9.10    1.60
  -5  -3   5    8.30    1.60
   5   3   5    8.00    1.70
  -5  -3   5    8.70    1.20
  -5   3  -5    8.20    1.50
   5  -3  -5   10.60    1.40
   6  -3   5   37.70    3.00
  -6   3   5   42.90    3.30
  -6  -3  -5   34.60    3.50
   6   3  -5   40.20    3.00
  -6  -3  -5   35.10    2.90
   6   3  -5   36.30    4.10
   6  -3   5   38.90    3.10
   6   3  -5   34.70    2.80
  -6  -3   5   40.10    2.80
   6   3   5   35.70    3.00
   6   3   5   28.50    3.60
   6  -3  -5   27.20    3.10
   6  -3  -5   40.50    2.80
  -6  -3   5   37.40    3.20
  -6   3  -5   35.50    3.40
  -7  -3  -5   74.09    5.20
   7  -3   5   76.89    5.30
  -7   3   5   82.99    5.40
   7  -3   5   83.49    5.10
   7   3  -5   87.49    5.00
   7   3  -5   71.89    4.80
  -7  -3  -5   70.49    4.80
   7   3   5   83.29    5.40
  -7  -3   5   80.19    4.90
  -7  -3   5   79.89    5.40
   7  -3  -5   74.39    4.70
   7   3   5   89.59    6.30
   7  -3  -5   77.79    5.20
  -7   3  -5   72.59    5.00
  -8  -3  -5   10.00    2.10
   8   3  -5   13.30    2.20
  -8   3   5   13.40    2.50
  -8  -3  -5   14.70    2.60
   8  -3   5   14.20    2.50
   8  -3  -5    9.30    2.10
  -8   3  -5   10.70    2.20
  -8  -3   5   12.40    2.50
  -8  -3   5   16.80    2.70
   8   3   5   10.30    2.20
   9  -3   5   43.30    4.70
  -9   3   5   48.30    4.80
   9   3  -5   48.10    4.50
  -9  -3  -5   40.10    4.30
  -9   3  -5   41.10    4.60
   9  -3  -5   44.70    4.60
   9   3   5   40.00    4.50
 -10  -3  -5   -0.50    1.60
 -10   3   5   -1.20    1.60
  10  -3   5    0.00    1.60
  10   3  -5    0.40    1.70
  10  -3  -5    2.50    1.80
 -10   3  -5    1.10    1.70
  10   3   5    1.90    1.80
 -11   3   5   16.50    3.80
  11  -3   5    9.80    3.10
 -11  -3  -5   14.80    3.40
 -11   3  -5   13.20    3.60
  11   3   5    9.10    2.90
   0  -4  -5   -0.30    0.40
   0  -4   5    0.50    0.50
   0   4  -5   -0.10    0.40
   0  -4  -5   -0.10    0.50
   0   4  -5    0.10    0.50
   0  -4   5    0.70    0.50
   0   4  -5    0.10    0.50
   0  -4  -5    0.00    0.40
   0  -4  -5   -0.60    0.30
  -1  -4  -5  159.88    7.20
  -1  -4  -5  157.18    6.50
   1  -4   5  132.99    6.50
   1   4  -5  129.69    6.80
   1   4  -5  131.79    7.00
   1   4  -5  143.99    7.00
  -1  -4  -5  148.59    6.90
   1  -4   5  136.89    6.80
  -1   4  -5  138.69    6.40
   1  -4  -5  135.89    6.80
  -1   4  -5  136.69    6.90
  -1   4  -5  129.69    6.90
   1  -4  -5  152.38    6.50
   1  -4  -5  145.09    6.90
   1   4   5  141.79    6.20
  -1   4  -5  144.89    7.00
   1   4   5  148.89    6.30
   1  -4  -5  129.69    6.80
  -1  -4   5  135.39    6.90
   1   4   5  137.09    6.60
  -1  -4   5  143.79    6.80
  -2  -4  -5  128.09    7.50
   2   4  -5  156.58    7.60
  -2   4   5  160.38    7.20
   2  -4   5  152.08    6.90
  -2   4   5  166.58    6.90
  -2  -4  -5  150.08    7.30
   2   4  -5  134.79    7.30
  -2   4   5  138.89    6.80
   2  -4   5  147.69    7.40
   2  -4  -5  149.59    7.40
   2   4   5  143.79    7.20
   2  -4  -5  159.08    7.00
  -2   4  -5  158.98    7.60
   2  -4  -5  151.98    7.50
  -2   4  -5  149.49    7.40
   2   4   5  155.18    7.10
  -2  -4   5  141.39    7.20
  -2   4  -5  169.78    7.20
  -2  -4   5  151.98    7.50
  -2   4  -5  161.08    7.60
  -3  -4  -5  184.68    8.60
   3   4  -5  184.18    9.00
   3   4  -5  183.48    8.60
   3  -4   5  172.98    8.60
  -3   4   5  182.58    8.50
  -3   4   5  174.88    8.20
  -3  -4  -5  172.28    8.90
   3   4  -5  174.98    8.60
   3  -4   5  178.98    8.50
  -3  -4   5  158.38    8.60
  -3  -4   5  194.18    7.70
   3   4   5  163.48    8.40
   3  -4  -5  186.88    8.20
  -3   4  -5  163.38    8.40
   3  -4  -5  175.88    8.80
   3   4   5  166.28    8.40
   4   4  -5  119.69    6.50
  -4   4   5  132.69    6.30
  -4   4   5  124.59    6.70
  -4  -4  -5  122.69    6.90
   4  -4   5  124.89    6.70
   4  -4   5  119.39    6.60
   4   4  -5  133.39    6.60
   4   4  -5  129.69    7.10
  -4  -4  -5  129.59    6.60
  -4  -4   5  136.49    6.00
   4  -4  -5  127.59    6.90
  -4  -4   5  123.09    6.90
   4  -4  -5  125.89    6.20
  -4   4  -5  134.69    6.60
   4   4   5  126.39    6.90
   4   4   5  127.99    6.60
   5   4  -5   16.00    2.60
  -5  -4  -5   15.30    1.90
   5  -4   5   14.50    2.00
   5   4  -5   15.70    1.90
  -5  -4  -5   11.40    1.90
  -5   4   5   13.80    1.90
   5   4  -5   16.10    2.00
   5  -4   5   16.30    2.00
  -5   4  -5   16.40    2.10
  -5  -4   5   17.90    1.70
   5  -4  -5   18.00    1.80
   5   4   5   16.10    2.10
   5   4   5   15.00    2.30
   5  -4  -5   16.70    2.30
  -5  -4   5   14.20    2.20
   6   4  -5    3.70    1.80
   6  -4   5    8.50    1.70
  -6   4   5    4.20    1.30
  -6  -4  -5    5.10    1.50
   6   4  -5    6.00    1.40
  -6  -4  -5    6.60    1.50
   6  -4   5    3.60    1.30
   6   4  -5    9.50    1.80
   6  -4  -5    5.70    1.50
   6   4   5    6.20    1.90
  -6  -4   5    3.00    1.20
   6  -4  -5    9.80    1.50
  -6   4  -5    7.50    1.70
   6   4   5    6.00    1.50
  -7  -4  -5   34.40    3.80
  -7   4   5   31.00    3.50
  -7  -4  -5   38.70    3.30
   7   4  -5   35.40    3.50
   7  -4   5   29.70    3.20
   7   4  -5   39.80    5.20
   7  -4   5   27.50    3.20
   7   4   5   36.70    3.70
   7   4   5   29.20    4.00
  -7  -4   5   33.10    3.60
   7  -4  -5   36.90    3.90
  -7   4  -5   35.60    3.70
   8   4  -5   54.09    4.20
   8  -4   5   56.09    4.50
  -8  -4  -5   48.60    4.30
  -8  -4  -5   51.09    4.20
   8  -4   5   51.99    4.30
  -8   4   5   51.69    5.00
   8  -4  -5   48.50    4.20
   8   4   5   60.79    6.20
  -8  -4   5   48.90    4.30
  -8   4  -5   50.99    4.30
   8   4   5   47.10    4.80
   9  -4   5   20.90    3.30
  -9  -4  -5   28.30    3.60
   9   4  -5   23.60    3.30
  -9   4   5   28.60    3.90
  -9   4  -5   19.70    3.20
  -9  -4   5   26.40    3.70
   9  -4  -5   25.80    3.60
   9   4   5   26.30    3.70
  10  -4   5   10.60    2.80
 -10   4   5    3.60    2.10
 -10  -4  -5   11.80    2.70
  10   4  -5   11.80    2.90
  10   4   5    8.30    2.70
 -10   4  -5   13.40    2.90
  10  -4  -5   12.10    2.70
  11  -4   5   30.20    4.60
 -11   4   5   23.10    4.50
 -11  -4  -5   22.40    4.20
 -11   4  -5   20.80    3.80
  11   4   5   22.00    4.30
   0   5  -5  134.49    7.00
   0   5  -5  141.69    6.90
   0  -5  -5  137.09    6.70
   0  -5  -5  144.99    7.10
   0  -5   5  126.49    6.30
   0  -5  -5  138.29    6.90
   0   5  -5  141.99    7.00
   0  -5  -5  141.99    6.70
   0  -5   5  124.99    6.30
   1   5  -5  289.27   13.40
   1   5  -5  295.57   13.40
   1  -5   5  274.17   12.90
   1   5  -5  284.57   13.40
  -1  -5  -5  319.67   13.00
   1  -5   5  313.97   12.60
  -1  -5  -5  299.07   13.30
  -1  -5  -5  307.57   13.70
   1  -5  -5  286.17   13.30
  -1   5  -5  291.87   12.80
  -1   5  -5  275.17   13.30
   1  -5  -5  294.47   13.00
  -1  -5   5  259.67   12.80
   1  -5  -5  294.07   13.40
   1   5   5  270.97   12.00
   1   5   5  282.17   12.00
  -1  -5   5  268.87   12.80
  -1   5  -5  281.87   13.50
  -1   5  -5  299.87   13.40
   1  -5  -5  277.67   13.30
   1   5   5  294.87   12.70
   2   5  -5   74.79    4.30
   2  -5   5   73.19    4.30
  -2  -5  -5   69.59    4.50
   2  -5   5   82.19    3.90
  -2  -5  -5   81.79    4.30
  -2   5   5   74.39    3.60
  -2   5   5   77.79    3.70
   2   5  -5   75.29    4.50
  -2   5   5   72.09    4.10
  -2   5  -5   68.29    4.30
  -2   5  -5   75.69    4.50
  -2   5  -5   76.59    4.00
   2   5   5   72.99    3.90
  -2  -5   5   74.79    4.50
   2   5   5   73.29    4.20
   2  -5  -5   77.79    4.40
  -2  -5   5   76.99    4.30
   2  -5  -5   75.89    4.00
   2   5   5   74.69    3.70
   2   5   5   74.09    3.70
   2  -5  -5   79.29    4.30
  -2   5  -5   75.79    4.40
   3   5  -5   34.70    2.60
  -3   5   5   33.20    2.50
   3  -5   5   32.90    2.60
  -3  -5  -5   31.70    2.80
   3   5  -5   32.90    2.80
  -3   5   5   34.20    2.30
   3  -5   5   30.40    2.50
  -3  -5  -5   31.40    2.40
  -3  -5   5   30.30    2.60
   3  -5  -5   36.50    2.80
   3   5   5   32.70    2.40
  -3   5  -5   32.20    2.30
  -3  -5   5   28.70    2.30
   3   5   5   29.60    2.30
   3  -5  -5   30.80    2.20
   4   5  -5  119.19    6.80
   4  -5   5  107.49    6.00
   4   5  -5  123.59    6.40
  -4   5   5  117.79    6.10
  -4  -5  -5  108.49    6.10
   4  -5   5  110.99    6.10
  -4  -5  -5  119.39    6.70
   4   5  -5  122.49    6.30
   4  -5  -5  115.69    6.50
   4   5   5  101.69    6.00
  -4   5  -5  111.79    6.10
   4   5   5  107.69    5.90
  -4  -5   5  108.79    6.30
   4  -5  -5  117.89    5.90
  -5  -5  -5   66.79    4.80
   5  -5   5   66.09    4.60
   5  -5   5   69.99    4.60
   5   5  -5   72.19    5.20
   5   5  -5   67.29    4.40
  -5   5   5   70.69    4.50
  -5  -5  -5   71.29    4.40
   5   5  -5   79.19    4.60
   5  -5  -5   78.39    4.20
  -5  -5   5   73.59    4.90
  -5   5  -5   70.19    4.50
   5  -5  -5   68.39    4.80
   5   5   5   73.79    4.60
   5   5   5   75.69    5.00
  -6  -5  -5   66.19    4.30
  -6  -5  -5   56.09    4.50
  -6   5   5   58.39    4.20
   6  -5   5   51.19    4.00
   6   5  -5   56.09    4.10
   6  -5   5   57.59    4.10
   6   5  -5   65.39    5.20
   6   5  -5   60.99    4.10
  -6   5  -5   56.09    4.20
   6   5   5   55.59    4.60
  -6  -5   5   60.49    4.50
   6  -5  -5   67.19    4.00
   6   5   5   55.19    4.10
   6  -5  -5   57.89    4.40
  -7  -5  -5  138.99    7.90
   7  -5   5  126.39    7.40
   7   5  -5  125.09    8.30
   7   5  -5  122.79    7.30
  -7   5   5  122.59    7.40
   7  -5   5  134.49    7.60
  -7  -5  -5  132.99    7.30
  -7   5  -5  124.69    7.50
   7  -5  -5  123.79    7.60
   7   5   5  122.69    7.40
  -7  -5   5  129.89    7.80
   7   5   5  127.29    8.00
   8  -5   5    8.30    2.00
   8  -5   5    6.40    1.90
   8   5  -5   10.00    2.30
  -8  -5  -5   10.10    2.20
  -8   5   5    6.80    2.00
  -8  -5  -5   12.10    2.60
   8  -5  -5    9.60    2.30
  -8   5  -5    9.10    2.20
   8   5   5   10.30    2.30
   8   5   5   14.90    3.20
  -8  -5   5    7.70    2.30
  -9  -5  -5   17.60    2.90
  -9  -5  -5   14.00    3.20
   9   5  -5   13.10    2.80
  -9   5   5   15.00    2.90
   9  -5   5   17.50    3.00
  -9  -5   5   16.70    3.10
  -9   5  -5   21.80    3.40
   9  -5  -5   19.10    3.20
   9   5   5   19.90    3.30
  10  -5   5   18.40    3.30
 -10   5   5   19.00    3.40
  10   5  -5   27.10    3.90
  10  -5  -5   22.20    3.70
  10   5   5   25.60    4.10
   0  -6  -5   -0.50    0.40
   0  -6  -5    0.20    0.50
   0  -6   5    0.10    0.60
   0  -6  -5   -0.50    0.60
   0  -6   5    0.00    0.60
   0  -6  -5    0.30    0.60
   0   6  -5    0.40    0.70
   0   6  -5    0.90    0.70
   0   6  -5    0.30    0.60
   1  -6   5   20.60    2.30
  -1  -6  -5   24.50    1.90
   1   6  -5   24.20    2.50
   1  -6   5   26.00    1.90
  -1  -6  -5   22.40    1.90
  -1  -6  -5   27.10    2.10
   1   6  -5   23.50    2.50
  -1  -6  -5   24.10    2.50
   1   6  -5   22.10    2.40
   1  -6  -5   25.90    2.20
  -1  -6   5   23.00    2.10
   1   6   5   22.70    1.30
  -1  -6   5   22.90    2.40
  -1   6  -5   19.60    2.30
   1  -6  -5   22.90    2.30
   1  -6  -5   22.30    1.90
  -1   6  -5   25.90    1.70
   1  -6  -5   26.60    2.10
  -1   6  -5   22.50    2.30
   1   6   5   22.90    1.20
  -1   6  -5   24.20    2.30
  -2  -6  -5  215.18   10.30
  -2   6   5  201.28    8.50
   2  -6   5  201.08    8.90
  -2   6   5  183.28    9.20
  -2  -6  -5  205.38    9.70
   2   6  -5  202.78   10.00
   2  -6   5  182.38    9.40
   2   6  -5  193.18    9.90
  -2   6   5  187.88    8.40
   2   6  -5  191.58    9.80
   2   6   5  204.38    8.90
  -2   6  -5  189.28   10.00
   2   6   5  215.18    8.90
   2  -6  -5  206.98    9.80
   2  -6  -5  211.78   10.00
   2   6   5  193.28    9.30
   2  -6  -5  206.98    9.50
  -2   6  -5  221.68    9.40
  -2   6  -5  200.78    9.90
  -2   6  -5  191.08    9.90
   2   6   5  187.08    8.80
  -2  -6   5  172.58    9.50
  -2  -6   5  190.38    9.40
   3   6  -5  165.58    8.60
  -3   6   5  154.38    8.00
   3   6  -5  151.68    8.30
   3  -6   5  164.38    8.40
   3  -6   5  159.48    8.20
  -3   6   5  157.88    7.70
  -3  -6  -5  174.38    8.20
  -3  -6  -5  145.49    8.60
  -3  -6   5  162.58    8.40
  -3   6  -5  177.88    8.10
  -3  -6   5  158.98    8.10
   3   6   5  157.08    8.00
   3  -6  -5  163.48    8.00
   3  -6  -5  179.58    8.70
   3   6   5  156.68    7.80
  -4   6   5   53.59    3.80
  -4  -6  -5   49.70    4.20
   4   6  -5   60.19    4.40
   4   6  -5   54.89    3.90
   4   6  -5   58.19    3.90
   4  -6   5   57.89    4.00
  -4  -6  -5   63.19    3.90
   4  -6   5   57.89    4.10
   4   6   5   56.99    3.90
   4   6   5   60.99    4.00
  -4   6  -5   62.49    3.90
   4  -6  -5   63.99    3.70
  -4  -6   5   59.69    4.20
   4  -6  -5   59.69    4.20
   5   6  -5   75.09    4.80
   5   6  -5   71.79    4.60
  -5   6   5   70.59    4.60
   5  -6   5   66.79    4.60
  -5  -6  -5   58.09    4.80
  -5  -6  -5   82.49    4.70
   5  -6   5   71.79    4.80
   5   6  -5   74.69    5.40
  -5   6  -5   80.69    4.80
  -5  -6   5   62.59    4.80
   5   6   5   67.29    4.50
   5  -6  -5   68.49    4.90
   5  -6  -5   77.39    4.50
   5   6   5   77.79    4.90
   6   6  -5   32.40    3.30
  -6   6   5   30.90    3.40
  -6  -6  -5   33.30    3.30
   6  -6   5   29.50    3.40
  -6  -6  -5   25.40    3.30
   6   6  -5   35.20    4.20
   6  -6   5   28.90    3.20
  -6   6  -5   33.10    3.40
   6   6   5   31.60    3.80
   6   6   5   25.60    3.00
   6  -6  -5   28.40    3.40
  -6  -6   5   31.50    3.60
   7   6  -5   10.80    2.10
   7  -6   5   11.80    2.30
  -7   6   5   12.60    2.30
  -7  -6  -5    7.00    2.00
  -7  -6  -5   10.20    2.00
   7  -6   5    7.90    2.00
   7   6  -5    8.30    2.60
  -7  -6   5   10.30    2.40
   7   6   5    6.60    1.80
  -7   6  -5    7.80    1.90
   7   6   5   11.40    2.70
   7  -6  -5   11.90    2.40
  -8  -6  -5    2.60    1.70
   8  -6   5    6.00    1.90
   8  -6   5    5.20    1.90
   8   6  -5    4.30    1.70
  -8  -6  -5    5.30    1.90
  -8   6   5    3.30    1.60
   8  -6  -5    2.20    1.60
   8   6   5    3.60    1.70
  -8  -6   5    3.30    1.90
  -8   6  -5    2.70    1.60
   8   6   5    0.60    2.00
   9  -6   5   43.20    4.90
   9   6  -5   49.10    4.90
  -9   6   5   44.00    4.90
   9  -6   5   42.50    4.80
  -9  -6  -5   43.80    5.10
  -9  -6   5   48.50    5.40
  -9   6  -5   46.40    5.10
   9  -6  -5   43.50    5.00
   9   6   5   42.20    4.80
   9   6   5   46.30    6.20
  10  -6   5    1.80    2.10
 -10   6   5    4.60    2.40
  10   6  -5    1.80    2.10
 -10  -6   5    2.20    2.10
 -10   6  -5    2.10    1.90
  10   6   5    2.40    2.40
  10  -6  -5    2.40    1.90
   0  -7  -5  113.89    5.60
   0   7  -5  102.69    5.80
   0   7  -5  103.89    5.70
   0  -7  -5   96.99    5.50
   0  -7   5  107.79    5.60
   0  -7  -5  107.49    5.60
   0  -7   5   93.69    5.60
   0  -7  -5   98.49    5.80
   0   7  -5  107.09    6.00
   1   7  -5   91.19    5.20
   1  -7   5   95.99    5.00
  -1  -7  -5   88.39    4.90
  -1  -7  -5   92.79    5.00
  -1  -7  -5   92.69    5.50
   1   7  -5   89.09    5.30
  -1  -7  -5   89.49    5.00
   1  -7   5   84.79    5.20
   1   7  -5   91.49    5.20
   1  -7  -5   94.59    5.10
   1   7   5   90.39    4.00
  -1   7  -5   98.99    5.20
   1  -7  -5   86.89    5.20
  -1   7  -5   92.39    5.30
  -1   7  -5   86.19    5.30
   1   7   5   88.49    4.00
  -1  -7   5   86.19    5.20
   1  -7  -5   90.79    5.00
   1  -7  -5   82.79    5.00
  -1  -7   5   95.09    5.30
  -2   7   5  201.88    8.50
   2  -7   5  193.18    9.70
   2   7  -5  208.68   10.50
  -2  -7  -5  227.28   10.30
   2   7  -5  211.58   10.40
  -2  -7  -5  218.68   10.90
   2   7  -5  197.98   10.50
  -2  -7   5  194.78    9.90
   2   7   5  192.78    9.50
  -2   7  -5  198.28   10.50
   2  -7  -5  220.48   10.10
   2  -7  -5  201.68   10.20
   2   7   5  185.18    8.90
   2  -7  -5  191.18   10.40
   2  -7  -5  240.38   10.40
  -2   7  -5  203.98   10.60
  -2  -7   5  190.78    9.60
  -2   7  -5  225.38    9.90
  -2   7  -5  218.78   10.50
  -3  -7  -5    1.50    1.20
   3   7  -5    1.00    1.00
  -3   7   5    1.40    0.90
   3  -7   5    1.40    0.90
   3   7  -5    4.20    1.30
  -3  -7  -5    3.50    1.10
  -3   7  -5    0.60    0.90
  -3  -7   5    1.60    1.10
  -3  -7   5    2.10    1.10
   3  -7  -5    2.00    0.90
   3   7   5    2.70    1.00
  -3   7  -5    0.50    1.00
  -3   7  -5    1.90    0.90
   3  -7  -5    2.30    1.10
  -3   7  -5    1.00    1.10
   3   7   5    2.00    0.90
  -4   7   5  171.58    8.50
   4   7  -5  164.88    9.00
   4  -7   5  162.98    8.60
  -4  -7  -5  166.58    9.50
   4  -7   5  151.88    8.60
  -4  -7  -5  183.48    8.90
   4   7  -5  182.68    9.50
   4   7  -5  181.48    9.00
   4  -7  -5  173.98    8.60
   4  -7  -5  174.48    9.30
  -4  -7   5  155.48    8.80
   4   7   5  152.28    8.30
  -4   7  -5  169.18    8.80
   4   7   5  161.78    8.40
   5   7  -5    3.20    1.40
   5   7  -5    3.50    1.40
   5  -7   5    3.00    1.30
   5  -7   5    1.20    1.10
  -5   7   5    1.90    1.10
   5   7  -5    1.30    1.50
  -5  -7  -5    3.80    1.40
  -5  -7  -5    3.10    1.40
   5   7   5    1.80    1.20
   5  -7  -5    3.90    1.40
  -5  -7   5    3.60    1.50
   5   7   5    3.30    1.50
  -5   7  -5    1.70    1.20
   5  -7  -5    1.20    1.20
   6  -7   5   91.69    5.90
  -6  -7  -5   98.09    5.70
   6   7  -5   91.49    5.90
  -6   7   5   92.59    5.80
   6   7  -5   87.59    6.60
   6  -7   5   83.59    5.90
  -6  -7  -5   99.39    6.60
  -6   7  -5   98.69    5.90
  -6  -7   5   91.99    6.20
   6   7   5   91.39    5.80
   6   7   5   84.19    6.00
   6  -7  -5   80.79    6.00
  -7   7   5   18.00    2.80
   7  -7   5   21.90    3.10
   7   7  -5   24.20    3.90
   7  -7   5   15.30    2.60
  -7  -7  -5   21.30    3.40
   7   7  -5   16.80    2.70
   7   7   5   22.60    3.20
  -7   7  -5   21.50    3.00
   7  -7  -5   24.90    3.30
   7   7   5   22.60    3.50
  -7  -7   5   21.20    3.30
   8   7  -5   31.60    5.10
  -8   7   5   23.50    3.50
   8  -7   5   31.00    4.00
  -8  -7  -5   33.10    4.40
   8  -7   5   33.20    4.10
   8   7  -5   32.10    3.90
   8   7   5   37.40    4.80
  -8  -7   5   27.10    4.20
   8  -7  -5   33.70    4.20
   8   7   5   32.40    4.00
  -8   7  -5   30.80    3.90
   9   7  -5   -0.70    1.50
  -9   7   5    0.40    1.60
   9  -7   5    0.80    1.60
   9  -7   5    2.50    2.00
  -9  -7  -5    1.50    2.00
   9   7   5   -3.40    2.40
  -9  -7   5    2.30    2.00
   9   7   5    2.40    2.00
  -9   7  -5    0.10    1.40
   9  -7  -5    2.20    1.90
 -10  -7  -5   17.40    4.10
  10  -7   5   17.80    3.60
  10   7  -5   21.10    3.80
 -10   7   5   14.80    3.20
 -10  -7   5   15.80    3.70
 -10   7  -5   17.10    3.60
  10  -7  -5   22.50    3.90
  10   7   5   19.00    4.20
   0  -8  -5    0.80    0.80
   0  -8  -5    0.40    0.90
   0  -8  -5   -0.20    0.70
   0   8  -5    0.70    0.90
   0  -8   5   -0.10    0.80
   0   8  -5   -1.00    0.90
   0   8  -5   -0.70    0.80
   0  -8   5    1.30    1.00
   0  -8  -5    0.40    0.80
  -1  -8  -5   78.79    4.20
  -1  -8  -5   60.49    4.50
  -1  -8  -5   63.99    4.20
   1   8  -5   54.39    4.30
   1  -8   5   56.49    4.20
  -1  -8  -5   70.39    4.20
   1   8  -5   68.19    4.40
   1   8  -5   60.79    4.30
   1  -8   5   74.39    4.20
   1   8   5   62.29    3.10
   1  -8  -5   60.49    4.20
  -1   8  -5   64.69    4.50
  -1   8  -5   66.29    4.30
   1  -8  -5   68.89    4.20
  -1  -8   5   69.89    4.40
  -1   8  -5   66.89    4.60
   1  -8  -5   74.39    4.50
  -1  -8   5   64.69    4.30
   1  -8  -5   69.89    4.20
   2   8  -5   18.00    2.30
   2  -8   5   17.30    2.30
   2   8  -5   13.10    2.20
  -2  -8  -5   18.00    2.10
  -2  -8  -5   15.80    2.50
  -2   8   5   15.50    1.10
   2   8  -5   12.20    2.00
   2  -8  -5   16.80    2.10
   2   8   5   15.00    2.10
  -2   8  -5   16.60    2.10
   2  -8  -5   17.10    2.30
   2  -8  -5   15.80    2.10
   2   8   5   11.90    1.50
  -2  -8   5   16.70    2.30
  -2   8  -5   14.10    2.20
  -2  -8   5   14.30    2.10
   2  -8  -5   20.80    2.40
  -2   8  -5   16.20    2.30
  -3   8   5   42.60    3.40
   3   8  -5   47.20    3.90
  -3  -8  -5   44.80    4.10
   3  -8   5   49.20    3.70
   3   8  -5   51.99    3.90
  -3  -8  -5   53.99    3.60
   3   8   5   43.80    3.20
   3  -8  -5   49.70    3.50
  -3   8  -5   45.70    4.00
  -3   8  -5   61.09    4.20
  -3   8  -5   54.19    4.10
   3  -8  -5   49.40    3.90
  -3   8  -5   49.60    3.90
  -3  -8   5   48.10    3.70
  -3  -8   5   44.20    3.80
   3   8   5   49.60    3.60
   4   8  -5   12.40    2.20
  -4  -8  -5    9.00    2.10
   4   8  -5    9.50    1.90
  -4   8   5   16.40    2.30
   4  -8   5   10.70    2.10
   4  -8   5   11.40    2.10
   4   8  -5    9.60    2.20
  -4  -8  -5   14.40    2.20
  -4   8  -5   10.50    2.20
   4  -8  -5   18.00    2.20
  -4   8  -5    9.20    2.00
  -4  -8   5    7.40    1.90
  -4   8  -5   12.80    2.00
   4  -8  -5   12.30    2.40
   4   8   5   10.40    1.80
   4   8   5    7.20    1.80
  -4   8  -5   10.50    2.10
   5  -8   5   20.00    2.80
  -5   8   5   17.10    2.60
   5  -8   5   21.80    3.10
  -5  -8  -5   22.20    3.30
   5   8  -5   23.10    3.40
   5   8  -5   24.80    3.20
   5   8   5   18.20    2.80
  -5   8  -5   21.00    2.60
   5  -8  -5   19.30    3.10
  -5  -8   5   19.00    2.90
   5   8   5   18.10    2.60
  -6   8   5    3.50    1.40
   6  -8   5    2.80    1.40
   6   8  -5    4.50    1.60
  -6  -8  -5    3.70    1.70
   6   8  -5    3.50    2.00
   6  -8   5    3.50    1.60
  -6  -8   5    2.50    1.60
  -6   8  -5    1.50    1.20
   6  -8  -5    2.90    1.40
   6   8   5    0.40    1.40
   6   8   5    3.70    1.50
   7  -8   5    8.10    2.10
  -7   8   5    8.00    2.10
   7   8  -5    5.90    1.90
  -7  -8  -5   12.50    2.80
   7  -8   5   11.00    2.60
   7   8  -5    5.30    2.50
   7   8   5    9.50    2.70
   7  -8  -5   12.10    2.80
   7   8   5   13.10    2.60
  -7  -8   5    9.60    2.50
  -7   8  -5   10.00    2.30
  -8  -8  -5   36.00    4.90
   8   8  -5   34.40    4.20
   8  -8   5   37.60    4.60
   8  -8   5   34.80    4.30
  -8   8   5   34.60    4.10
   8   8  -5   38.40    5.40
  -8   8  -5   32.60    4.10
   8   8   5   37.50    4.90
   8   8   5   35.90    4.30
  -8  -8   5   27.40    4.40
   8  -8  -5   32.40    4.40
   9  -8   5   17.40    3.30
  -9   8   5   16.00    3.20
  -9  -8  -5   19.40    3.80
   9   8  -5   15.90    3.10
   9  -8   5   22.30    3.70
  -9  -8   5   20.60    3.80
   9   8   5   24.00    3.60
   9  -8  -5   22.40    3.80
  -9   8  -5   15.90    3.20
   9   8   5   15.90    4.10
   0   9  -5  124.59    7.30
   0  -9  -5  129.49    7.00
   0  -9  -5  140.49    7.70
   0  -9  -5  129.69    7.20
   0   9  -5  130.79    7.20
   0  -9   5  114.19    7.00
   0  -9  -5  143.29    7.30
   0  -9   5  134.69    7.10
   0   9  -5  133.39    7.60
  -1  -9  -5   38.60    3.00
   1   9  -5   31.30    3.30
  -1  -9  -5   32.30    3.20
  -1  -9  -5   33.20    3.70
   1  -9   5   28.00    3.20
   1   9  -5   34.20    3.70
   1   9  -5   38.60    3.70
  -1   9  -5   26.80    3.00
   1  -9  -5   39.10    3.10
  -1  -9   5   32.00    3.40
   1   9   5   33.00    3.40
   1  -9  -5   37.90    3.20
  -1  -9   5   31.70    3.40
   1  -9  -5   33.00    3.30
   1  -9  -5   31.00    3.00
  -1   9  -5   36.70    3.90
  -1   9  -5   30.90    3.40
   1   9   5   37.20    3.60
   1   9   5   30.20    1.80
  -2  -9  -5   59.89    4.40
   2   9  -5   51.79    4.00
   2   9  -5   50.09    4.00
  -2   9   5   50.09    3.60
   2  -9   5   49.70    3.80
  -2  -9  -5   53.29    4.30
   2   9  -5   55.19    4.20
   2  -9  -5   44.50    3.90
  -2  -9   5   47.90    3.90
  -2  -9   5   44.60    3.90
   2   9   5   46.90    3.60
  -2   9  -5   50.49    3.80
   2  -9  -5   53.69    3.80
  -2   9  -5   55.09    4.20
   2   9   5   44.40    2.90
  -2   9  -5   55.39    4.30
  -3   9   5   12.10    1.90
  -3  -9  -5    9.30    2.20
   3  -9   5   15.20    2.40
   3   9  -5   16.00    2.60
   3   9  -5   18.60    2.60
  -3   9  -5   13.20    2.30
  -3  -9   5   14.90    2.40
   3  -9  -5   14.50    2.50
   3   9   5   15.20    2.40
  -3   9  -5   18.10    2.80
  -3  -9   5   17.30    2.70
   3  -9  -5   15.70    2.20
  -3   9  -5   19.90    2.60
   3   9   5   14.00    1.90
  -4   9   5   92.49    5.90
  -4  -9  -5   96.19    6.70
   4  -9   5   95.49    6.20
   4   9  -5  104.89    6.40
   4   9  -5   99.59    6.30
   4   9  -5  111.29    6.70
   4  -9  -5  112.09    7.20
   4   9   5   96.49    6.10
  -4   9  -5   90.39    6.20
  -4   9  -5   95.49    6.30
   4  -9  -5  101.69    6.50
  -4   9  -5   79.09    6.10
  -4  -9   5  101.69    6.70
   4   9   5   97.39    5.90
   5   9  -5   19.90    3.00
  -5  -9  -5   20.00    3.20
   5   9  -5   24.00    3.60
   5  -9   5   16.80    2.70
   5  -9   5   12.00    2.60
  -5   9   5   18.70    2.60
   5  -9  -5   20.10    3.20
   5   9   5   13.50    2.40
  -5   9  -5   19.20    3.20
  -5   9  -5   15.40    2.80
   5   9   5   14.10    2.50
  -5  -9   5   18.20    3.20
  -5   9  -5   17.40    2.90
  -5   9  -5   19.90    3.10
   6  -9   5    0.70    1.30
   6   9  -5   -0.70    1.20
   6  -9   5   -1.30    1.20
  -6   9   5   -0.90    1.20
   6   9  -5    2.70    2.00
  -6  -9  -5    0.70    1.40
   6   9   5   -0.80    1.10
   6   9   5    0.30    1.60
  -6  -9   5    1.30    1.40
  -6   9  -5    0.10    1.30
   6  -9  -5    2.20    1.70
   7   9  -5    9.60    2.40
   7   9  -5   13.00    3.40
  -7   9   5    6.80    2.20
   7  -9   5   11.80    2.60
  -7  -9  -5   13.00    3.10
   7  -9   5   12.10    2.70
   7   9   5   14.80    3.20
  -7   9  -5   10.70    2.40
   7   9   5   13.40    2.70
   7  -9  -5    9.70    2.50
  -7  -9   5   12.60    3.00
   8  -9   5   -0.50    1.50
   8  -9   5    1.90    1.80
  -8  -9  -5    1.70    2.10
   8   9  -5    0.30    1.50
   8   9  -5    3.30    2.80
  -8   9   5    0.40    1.40
   8   9   5   -1.70    1.30
  -8  -9   5   -0.60    1.60
  -8   9  -5   -1.60    1.40
   8  -9  -5    2.10    1.40
   8   9   5    1.30    2.40
   9   9  -5   10.60    3.10
   9  -9   5   17.30    3.50
   9  -9   5   12.00    3.00
  -9   9   5   11.60    3.10
  -9  -9  -5   13.10    3.40
   9  -9  -5   11.70    3.10
   9   9   5    8.80    2.60
  -9   9  -5   20.90    3.70
  -9  -9   5    8.10    3.10
   9   9   5   14.90    4.50
   0 -10   5    1.50    1.40
   0 -10  -5   -0.20    1.00
   0  10  -5    0.80    1.30
   0 -10  -5    0.50    1.90
   0 -10  -5    0.00    1.00
   0 -10   5   -0.50    1.20
   0 -10  -5   -0.50    1.30
   0  10  -5    1.00    1.10
   0  10  -5    0.90    1.20
  -1 -10  -5   14.70    2.60
   1 -10   5   11.70    2.30
   1  10  -5   11.30    2.20
  -1 -10  -5    8.90    1.90
   1  10  -5   12.30    2.30
   1  10  -5   10.90    2.00
   1 -10  -5    8.90    1.90
  -1  10  -5   12.50    2.50
  -1 -10   5    6.50    1.80
  -1  10  -5   13.00    2.40
   1  10   5   10.40    1.10
   1 -10  -5    8.70    1.90
   1 -10  -5   10.90    1.90
  -1 -10   5   12.30    2.20
  -1  10  -5    9.30    1.80
   1 -10  -5   17.90    2.60
  -2  10   5   19.60    2.50
   2 -10   5   18.40    2.70
  -2 -10  -5   20.40    3.20
   2  10  -5   19.20    2.90
   2  10  -5   28.50    3.30
   2  10  -5   20.20    2.90
   2 -10  -5   21.50    2.70
   2  10   5   23.90    2.90
  -2  10  -5   16.70    2.50
  -2 -10   5   19.60    2.90
   2 -10  -5   18.00    2.80
  -2  10  -5   22.50    3.30
   2  10   5   18.20    1.90
  -2  10  -5   20.10    2.90
  -2 -10   5   18.40    2.90
   3  10  -5   44.00    4.30
   3  10  -5   44.70    4.50
  -3 -10  -5   41.90    4.60
   3 -10   5   36.80    3.90
  -3  10   5   41.00    3.40
   3 -10  -5   43.80    4.10
  -3  10  -5   44.10    4.20
   3  10   5   40.30    3.10
  -3 -10   5   39.00    4.00
  -3 -10   5   40.40    4.40
   3 -10  -5   41.50    4.30
  -3  10  -5   38.00    4.50
   3  10   5   41.50    4.10
  -3  10  -5   44.30    4.50
  -4 -10  -5    5.50    2.20
   4 -10   5    4.90    1.70
   4  10  -5    6.80    2.20
  -4  10   5    5.50    1.60
   4  10  -5    3.70    1.80
  -4  10  -5    2.30    1.70
  -4 -10   5    7.70    2.50
   4  10   5    7.80    1.80
  -4  10  -5    6.60    2.00
   4  10   5    2.00    1.30
  -4  10  -5    7.90    2.20
   4 -10  -5    6.20    1.90
  -5  10   5    0.70    1.20
  -5 -10  -5   -0.60    1.60
   5 -10   5    1.40    1.50
   5  10  -5    1.10    1.90
   5  10  -5   -1.70    1.20
   5 -10  -5    0.70    1.40
  -5  10  -5    0.50    1.60
  -5  10  -5    1.50    1.80
  -5 -10   5    1.10    1.70
  -5  10  -5   -0.60    1.50
   5  10   5   -0.40    1.10
   5  10   5    1.10    1.30
   6  10  -5    4.80    2.50
   6  10  -5    8.90    2.30
  -6  10   5    6.40    2.10
   6 -10   5    7.70    2.20
  -6 -10  -5    6.10    2.40
   6 -10  -5    4.70    2.00
  -6  10  -5    3.90    2.30
  -6  10  -5    3.20    2.10
   6  10   5    4.90    2.20
  -6 -10   5    0.10    1.90
   6  10   5    8.30    2.10
  -6  10  -5    5.60    2.20
   7 -10   5   17.20    3.20
  -7  10   5   13.10    2.70
   7  10  -5   21.10    3.50
   7 -10   5   13.70    3.10
  -7 -10  -5   17.00    3.60
   7  10  -5   16.80    3.90
  -7  10  -5   25.30    4.00
  -7  10  -5   12.90    3.40
  -7  10  -5   16.30    3.50
   7  10   5   18.20    3.60
  -7 -10   5   14.50    3.20
   7 -10  -5   18.70    3.50
   7  10   5   17.60    3.10
   8  10  -5   -0.50    2.80
   8 -10   5    4.50    2.20
  -8 -10  -5    2.90    2.10
   8  10  -5   -0.60    1.90
  -8  10   5    2.00    1.70
   8 -10   5    3.20    2.40
  -8  10  -5    5.30    2.60
   8 -10  -5    5.70    2.00
  -8 -10   5    2.00    1.90
   8  10   5    4.90    3.10
  -8  10  -5   -0.70    2.90
  -8  10  -5   -1.50    2.20
   8  10   5    1.80    1.50
  -8  10  -5    1.70    2.80
   0 -11  -5    2.80    1.60
   0  11  -5    4.20    1.40
   0  11   5    4.00    2.40
   0 -11   5    2.20    1.40
   0  11  -5    3.10    1.70
   0 -11  -5    2.60    1.70
   0  11  -5    4.00    1.50
  -1 -11  -5  124.99    7.30
   1  11  -5  112.89    7.30
   1  11  -5  127.59    7.30
   1 -11   5  121.39    7.50
  -1 -11  -5  114.19    7.70
   1  11  -5  131.19    7.80
   1  11   5  117.59    5.80
  -1  11  -5  117.09    7.50
   1 -11  -5  119.29    7.20
  -1 -11   5  125.99    7.60
  -1 -11   5  116.69    7.30
  -1  11  -5  121.19    7.00
  -1  11  -5  112.89    7.50
   1 -11  -5  136.89    7.60
   2  11  -5   15.20    2.60
   2 -11   5   10.90    2.30
   2  11  -5   15.50    2.80
   2  11  -5   16.90    2.80
  -2 -11  -5   13.00    2.90
  -2 -11   5   11.70    2.60
   2  11   5   17.10    1.90
  -2  11  -5   14.90    2.90
  -2  11  -5   15.80    2.60
  -2  11  -5   12.20    2.20
  -2 -11   5   11.90    2.40
   2 -11  -5   15.00    2.70
   2 -11  -5   18.40    2.70
   2  11   5   22.10    3.00
  -3  11   5   23.50    3.10
   3 -11   5   25.50    3.30
   3  11  -5   25.20    3.50
  -3 -11  -5   34.60    4.40
  -3  11  -5   31.10    3.60
   3 -11  -5   29.50    3.80
  -3  11  -5   28.30    3.70
  -3  11  -5   23.50    3.70
   3  11   5   27.60    3.50
   3  11   5   25.80    2.80
  -3 -11   5   26.50    3.70
  -3 -11   5   31.00    3.70
  -4 -11  -5    0.80    1.90
   4  11  -5   -1.10    1.30
  -4  11   5    0.90    1.30
   4 -11   5    0.90    1.50
   4  11  -5   -2.10    1.60
   4 -11  -5   -1.80    1.40
  -4  11  -5   -0.30    1.40
   4  11   5    0.60    1.20
  -4  11  -5   -0.30    1.30
   4  11   5    0.20    1.50
  -4 -11   5    1.00    1.70
  -4  11  -5    0.10    1.40
   5  11  -5   11.80    2.90
  -5 -11  -5   11.90    3.10
   5 -11   5    9.20    2.40
   5  11  -5    7.50    2.00
  -5  11   5   10.90    2.30
   5  11   5   14.50    2.70
   5  11   5   15.80    2.90
  -5  11  -5    7.30    2.50
  -5  11  -5    9.70    2.50
  -5 -11   5    6.50    2.50
  -5  11  -5   12.00    2.70
   5 -11  -5   14.60    3.20
   6 -11   5    4.00    2.00
   6  11  -5    6.10    2.30
  -6 -11  -5    4.50    2.60
  -6  11   5    8.70    2.30
   6  11  -5    0.10    2.30
   6  11   5    7.50    2.30
   6  11   5    3.00    2.00
  -6  11  -5    4.30    2.30
  -6 -11   5    6.70    2.60
  -6  11  -5    6.50    2.80
  -6  11  -5    7.50    2.60
   6 -11  -5    5.00    2.20
   7  11  -5    0.20    2.10
   7 -11   5    0.00    1.70
   7  11  -5    3.40    3.20
  -7 -11  -5    2.30    1.80
  -7  11   5    1.10    1.80
  -7  11  -5    1.50    2.10
  -7  11  -5    2.40    2.60
  -7 -11   5   -0.10    2.10
   7  11   5    1.50    1.60
   7 -11  -5   -2.50    2.10
   7  11   5    1.50    2.80
  -7  11  -5   -0.20    2.60
   0 -12  -5   -0.90    1.10
   0  12  -5   -0.20    1.40
   0 -12   5    1.30    1.50
   0  12  -5    0.80    1.30
   0  12   5    0.40    0.60
   0  12  -5    1.30    1.50
  -1 -12  -5   13.60    2.90
  -1  12   5   12.30    1.10
   1  12  -5   13.70    2.70
   1  12  -5   10.20    2.20
  -1  12   5   14.10    2.80
  -1 -12  -5   11.10    2.40
  -1  12   5    8.80    2.20
   1  12  -5   14.00    2.60
   1 -12   5   11.00    2.50
  -1  12  -5   10.30    2.10
   1  12   5    8.10    1.30
  -1  12  -5    9.10    2.60
  -1 -12   5    5.20    2.10
   1 -12  -5   11.80    2.40
  -1 -12   5    6.60    2.40
  -1  12  -5    9.10    2.30
   1 -12  -5   11.20    2.60
   2  12  -5   46.90    4.80
   2 -12   5   38.10    4.60
  -2 -12  -5   42.50    5.00
   2  12  -5   48.50    5.00
   2  12  -5   50.19    4.90
  -2  12  -5   50.89    5.40
  -2  12  -5   49.90    5.10
   2  12   5   47.20    4.80
   2  12   5   43.90    3.20
   2 -12  -5   41.80    4.80
  -2 -12   5   48.90    4.90
  -2  12  -5   50.59    4.20
  -2 -12   5   47.70    5.00
   2 -12  -5   46.30    5.00
   3 -12   5    5.30    2.30
   3  12  -5    8.20    2.50
  -3 -12  -5   10.40    2.90
   3  12   5    7.30    2.10
  -3  12  -5    5.70    1.90
  -3  12  -5    1.60    1.80
   3  12   5    5.70    1.60
  -3 -12   5    5.60    2.30
   3 -12  -5    7.50    2.30
  -3 -12   5    5.70    2.10
  -3  12  -5    9.00    2.20
   4  12  -5   23.60    3.80
   4 -12   5   30.20    4.00
  -4 -12  -5   20.60    3.70
   4  12  -5   26.00    3.80
   4 -12  -5   17.10    3.30
   4  12   5   26.80    3.70
  -4  12  -5   20.20    3.50
  -4 -12   5   22.50    4.00
  -4  12  -5   17.80    3.60
  -4  12  -5   23.80    3.50
   4  12   5   23.80    3.10
   5  12  -5   -1.40    1.60
  -5 -12  -5    1.60    2.00
   5 -12   5    2.20    2.00
   5  12  -5    5.50    2.80
  -5  12  -5   -1.50    1.30
  -5  12  -5   -1.40    2.00
  -5  12  -5   -0.70    1.20
   5 -12  -5    0.10    1.60
  -5 -12   5    1.90    2.00
   5  12   5    0.10    1.50
   5  12   5    2.50    1.70
  -6  12   5   18.70    3.50
   6  12  -5   15.20    3.40
   6  12  -5   10.00    3.70
  -6 -12  -5   14.20    3.90
   6 -12   5   13.70    3.20
   6  12   5   12.90    2.90
   6  12   5   15.30    3.50
  -6 -12   5    6.00    2.90
  -6  12  -5   15.80    3.90
  -6  12  -5   13.00    3.50
   6 -12  -5    6.40    2.90
  -6  12  -5    8.60    3.20
   0  13  -5   33.50    4.40
   0  13   5   33.20    2.40
   0 -13  -5   38.40    4.50
   0 -13   5   41.30    4.80
   0  13  -5   38.60    4.30
   0  13  -5   33.50    4.60
   1  13  -5   56.89    4.70
  -1  13   5   50.69    3.00
   1  13  -5   52.89    5.60
   1  13  -5   64.59    5.50
   1 -13   5   52.79    5.50
  -1 -13  -5   51.49    5.80
  -1 -13   5   51.19    5.40
   1 -13  -5   59.59    5.60
   1  13   5   57.49    3.40
   1  13   5   46.70    5.00
  -1  13  -5   53.29    5.60
  -1  13  -5   54.29    5.10
  -1  13  -5   52.19    5.80
  -2  13   5   12.30    3.20
  -2  13   5   10.30    2.70
  -2  13   5   10.60    1.50
  -2 -13  -5   10.70    2.90
   2  13  -5    9.50    2.30
   2 -13   5   12.30    2.70
  -2  13  -5    9.00    2.20
   2  13   5   10.80    1.80
   2 -13  -5   11.60    2.90
   2  13   5    9.00    2.50
  -2 -13   5   11.30    3.00
  -2 -13   5   13.00    3.10
  -2  13  -5   14.00    3.00
  -2  13  -5   14.00    3.20
   3  13  -5   27.60    4.10
  -3 -13  -5   27.80    4.50
   3 -13   5   33.30    4.50
  -3  13  -5   22.70    4.00
  -3 -13   5   24.10    4.10
   3 -13  -5   25.70    4.00
  -3  13  -5   31.90    4.00
  -3 -13   5   34.40    4.30
   3  13   5   22.20    2.90
   3  13   5   24.90    3.70
  -3  13  -5   24.70    4.40
   4  13  -5    0.10    1.90
   4 -13   5    4.40    2.30
   4  13  -5    1.30    2.50
  -4 -13  -5    1.30    2.40
  -4  13  -5    3.60    2.00
   4  13   5   -0.20    1.50
   4 -13  -5    0.20    2.00
  -4  13  -5    3.40    2.30
  -4 -13   5    1.30    2.50
  -4  13  -5    1.50    1.50
   4  13   5    1.50    1.50
  -5 -13  -5    4.10    3.10
   5  13  -5    8.80    3.70
   5  13  -5    6.30    3.00
   5 -13   5    4.70    2.50
   5 -13  -5    6.20    2.70
   5  13   5   10.80    2.50
   5  13   5    4.70    2.30
  -5 -13   5    6.10    3.20
  -5  13  -5    7.20    2.40
  -5  13  -5    9.60    3.50
  -5  13  -5    5.10    2.50
   0  14  -5   -2.60    1.90
   0 -14   5   -0.10    1.90
   0 -14  -5    2.30    2.20
   0  14  -5   -2.50    2.00
   0  14   5    0.30    1.00
   0  14  -5    1.70    1.60
   1 -14   5    6.10    2.60
   1  14  -5    7.70    3.40
   1  14  -5    8.80    3.80
   1  14  -5    6.00    2.10
  -1  14  -5    8.30    2.60
  -1  14  -5   11.20    2.90
   1  14   5    7.30    2.40
  -1  14  -5   11.70    2.50
  -1 -14   5    5.20    2.70
   1  14   5    5.70    1.50
  -2 -14  -5    2.30    2.60
   2 -14   5    6.20    2.60
   2  14  -5    5.00    2.20
  -2  14   5    7.20    1.50
   2  14   5    5.70    2.30
   2  14   5    8.40    1.60
  -2  14  -5    8.70    2.70
  -2 -14   5    6.70    2.70
  -2  14  -5    3.40    2.50
  -2  14  -5    8.80    2.20
   3  14  -5   24.00    4.00
  -3  14   5   29.60    4.40
  -3 -14  -5   27.00    4.90
   3 -14   5   25.60    4.30
  -3  14   5   26.40    2.80
   3  14  -5   18.00    3.50
  -3  14   5   27.30    4.50
  -3  14  -5   16.00    3.60
  -3  14  -5   27.50    4.30
   3  14   5   30.10    3.40
  -3 -14   5   28.00    4.60
  -3  14  -5   27.20    3.70
   3  14   5   29.00    4.20
   0   0  -6 1205.08   52.59
   0   0   6 1154.18   49.50
   0   0   6 1186.18   49.50
   0   0  -6 1296.67   52.69
  -1   0  -6    0.40    0.40
  -1   0   6    0.80    0.60
  -1   0  -6    0.70    0.40
   1   0   6    0.10    0.30
  -1   0   6   -0.20    0.30
   1   0  -6    0.80    0.40
   1   0  -6   -0.40    0.40
   1   0   6    0.20    0.50
   1   0   6    0.30    0.40
  -2   0   6 1304.77   56.19
   2   0   6 1337.57   55.99
   2   0  -6 1352.16   57.79
   2   0   6 1323.17   56.39
   2   0  -6 1363.36   57.59
   2   0   6 1347.67   56.09
  -2   0  -6 1354.46   57.69
  -2   0  -6 1346.17   57.39
  -2   0  -6 1420.66   57.39
   3   0  -6    0.20    0.50
  -3   0  -6    0.80    0.50
  -3   0   6    0.30    0.50
  -3   0  -6   -0.20    0.90
  -3   0  -6    0.40    0.40
   3   0   6    0.60    0.80
   3   0   6    0.40    0.50
  -3   0   6    1.30    0.50
   3   0  -6   -0.10    0.30
  -3   0  -6    0.80    0.60
  -3   0  -6    0.30    0.40
   4   0   6  217.68   10.30
  -4   0   6  226.18   10.20
  -4   0  -6  234.58   10.50
   4   0  -6  223.78   10.70
   4   0  -6  240.48   11.10
   4   0  -6  218.08   10.10
   4   0   6  214.98   10.80
  -4   0   6  207.48   10.30
  -4   0  -6  217.58   10.60
   4   0   6  228.98    9.80
  -5   0  -6    0.30    0.70
   5   0   6    0.50    0.60
   5   0   6    0.40    0.80
   5   0  -6   -0.30    0.60
   5   0   6   -1.00    1.00
  -5   0   6   -0.50    0.50
  -5   0   6    0.70    0.70
   5   0  -6   -0.50    0.60
  -5   0  -6    0.80    0.70
   6   0  -6   36.30    2.70
   6   0   6   35.00    3.00
  -6   0   6   33.50    2.80
  -6   0  -6   39.10    3.10
   6   0  -6   36.30    3.00
  -6   0   6   37.10    2.90
  -6   0  -6   35.80    3.00
   6   0   6   43.90    4.50
   7   0  -6    0.10    0.90
   7   0   6   -0.90    0.90
   7   0  -6   -0.90    0.80
  -7   0   6    0.80    1.10
  -7   0  -6   -0.30    1.00
  -7   0   6    0.10    1.00
   8   0   6  246.38   12.70
   8   0  -6  264.37   13.10
  -8   0   6  247.48   12.40
   8   0  -6  258.67   12.60
  -8   0  -6  256.97   13.20
  -9   0  -6    2.00    1.60
   9   0  -6    0.40    1.30
   9   0   6    2.50    1.60
  -9   0   6    0.60    1.40
  10   0   6   61.99    6.10
 -10   0  -6   47.80    5.20
 -10   0   6   62.89    5.30
  11   0   6   -0.80    2.10
 -11   0   6   -0.40    2.00
 -11   0  -6    0.70    2.40
   0   1  -6   -0.10    0.60
   0  -1   6    0.20    0.60
   0   1  -6   -0.40    0.30
   0   1   6    0.10    0.40
   0   1  -6    0.40    0.30
   0  -1  -6    0.20    0.40
   0   1   6   -0.30    0.40
   0  -1   6   -0.30    0.40
   0  -1  -6    0.50    0.40
   0  -1   6    0.10    0.30
   1   1  -6  113.09    5.70
   1  -1   6  118.19    5.30
  -1  -1  -6  116.09    5.50
   1  -1   6  114.09    5.40
   1   1  -6  117.39    5.20
   1  -1   6  108.39    5.70
  -1   1   6  107.19    5.40
  -1   1  -6  113.99    5.80
   1   1   6  117.19    5.60
  -1   1  -6  113.39    5.40
   1   1   6  111.09    5.50
   1  -1  -6  114.09    5.50
  -1  -1   6  112.39    5.60
  -1   1  -6  115.09    5.40
   1   1   6  120.69    5.20
  -1   1  -6  115.39    5.40
   1  -1  -6  113.89    5.50
  -1  -1   6  113.09    5.10
  -1  -1   6  109.79    5.60
   2  -1   6  312.47   14.00
   2   1  -6  317.07   14.50
  -2   1   6  301.37   13.80
   2   1  -6  324.77   14.30
   2   1  -6  331.57   13.90
  -2  -1  -6  327.07   14.30
   2  -1   6  317.77   13.60
  -2  -1  -6  304.87   14.30
   2   1  -6  325.07   14.00
   2  -1   6  318.77   13.70
   2   1   6  303.97   13.60
  -2   1  -6  332.67   14.60
   2  -1  -6  314.67   14.30
  -2   1  -6  324.47   14.10
   2   1   6  325.47   14.00
  -2  -1   6  293.27   13.80
   2  -1  -6  306.77   14.10
  -2   1  -6  321.37   14.20
  -2   1  -6  332.87   14.00
  -3  -1  -6  123.49    6.40
   3   1  -6  120.39    6.70
   3   1  -6  138.19    6.50
   3  -1   6  119.89    6.50
   3  -1   6  126.29    6.20
  -3  -1  -6  124.49    6.40
  -3   1   6  121.39    6.10
   3  -1   6  122.19    5.90
  -3   1   6  133.39    6.20
   3   1  -6  136.49    6.10
  -3   1  -6  119.29    6.30
   3  -1  -6  133.79    5.90
  -3   1  -6  132.99    6.80
  -3   1  -6  132.69    6.10
  -3  -1   6  128.89    5.90
  -3  -1   6  118.79    6.30
  -3   1  -6  138.89    6.20
   3   1   6  122.39    6.50
   3  -1  -6  131.29    6.50
   3   1   6  128.49    6.20
  -4   1   6   43.30    2.80
   4   1  -6   43.20    3.30
  -4  -1  -6   44.60    3.00
   4   1  -6   44.20    3.00
   4  -1   6   42.70    2.60
   4  -1   6   47.20    3.40
   4  -1   6   47.10    2.70
   4  -1   6   43.30    2.90
  -4  -1  -6   49.40    4.10
  -4  -1  -6   46.50    2.50
  -4  -1  -6   42.60    3.00
   4   1  -6   45.70    2.70
  -4  -1  -6   51.49    2.60
  -4   1   6   39.40    2.80
  -4   1  -6   42.70    3.00
   4   1   6   46.40    3.00
  -4  -1   6   41.00    2.60
   4   1   6   42.60    3.30
   4  -1  -6   48.90    3.20
   4  -1  -6   46.70    2.60
  -4  -1   6   45.00    3.00
  -5  -1  -6   84.49    4.80
  -5  -1  -6   79.69    4.80
   5   1  -6   83.49    4.90
  -5   1   6   81.29    4.80
   5   1  -6   91.19    4.60
  -5   1   6   84.89    4.70
   5  -1   6   90.49    5.50
   5   1  -6   85.39    5.40
   5  -1   6   86.69    5.00
   5  -1   6   85.39    4.50
   5   1   6   88.29    4.90
   5  -1  -6   78.89    4.90
  -5   1  -6   84.59    4.90
  -5  -1   6   84.39    4.60
  -5  -1   6   79.19    4.90
  -5   1  -6   84.09    4.50
   5   1   6   79.09    5.30
   5  -1  -6   91.69    4.50
   6  -1   6    1.30    0.90
   6  -1   6   -0.10    0.90
  -6   1   6   -0.70    0.70
  -6  -1  -6    0.60    0.80
  -6   1   6    0.50    0.80
  -6  -1  -6    0.30    0.90
   6   1  -6   -0.50    0.60
   6   1  -6    1.70    1.00
  -6  -1   6   -0.30    0.80
   6  -1  -6   -0.40    0.80
   6   1   6    3.00    1.10
   6   1   6    1.10    1.40
  -6  -1   6   -0.10    0.80
   6  -1  -6    0.70    0.80
  -6   1  -6   -0.70    0.70
   7   1  -6  206.28   10.50
  -7   1   6  223.58   10.80
  -7  -1  -6  201.08   10.50
   7   1  -6  219.88   10.20
   7  -1   6  209.58   10.90
   7  -1  -6  204.18   10.00
   7   1   6  210.58   10.90
  -7   1  -6  197.18   10.50
   7  -1  -6  204.28   10.60
  -7  -1   6  211.58   10.60
  -7  -1   6  209.38   10.80
  -8  -1  -6   27.30    3.30
   8   1  -6   38.70    3.80
   8  -1   6   33.70    3.90
  -8   1   6   34.50    3.60
   8   1  -6   33.40    3.30
  -8   1  -6   30.00    3.60
   8  -1  -6   32.10    3.50
   8   1   6   33.30    3.80
  -8  -1   6   35.40    3.60
  -9   1   6  133.79    7.90
  -9  -1  -6  112.89    7.50
   9  -1   6  119.99    7.70
  -9   1  -6  128.39    8.00
  -9  -1   6  127.69    7.50
   9   1   6  121.49    7.90
   9  -1  -6  128.09    7.60
 -10   1   6   13.20    2.90
 -10  -1  -6   18.20    3.30
  10  -1   6   16.20    3.20
 -10  -1   6   19.60    3.20
 -10   1  -6   12.00    2.90
  10   1   6   18.60    3.40
 -11  -1  -6   30.20    4.50
 -11   1   6   34.60    4.60
  11  -1   6   33.30    4.70
 -11   1  -6   26.50    4.40
  11   1   6   25.00    4.20
   0  -2  -6 2325.07   96.69
   0   2   6 2344.67   92.29
   0  -2   6 2215.98   91.89
   0   2  -6 2205.68   96.59
   0   2  -6 2309.67   96.69
   0   2   6 2061.09   91.79
   0  -2   6 2151.98   92.09
   0   2  -6 2190.08   96.79
   0  -2  -6 2485.55   96.49
   0   2  -6 2299.47   96.39
  -1   2   6  270.87   11.90
   1  -2   6  291.67   12.00
   1   2  -6  279.97   12.20
  -1  -2  -6  282.07   12.10
  -1  -2  -6  266.77   12.30
   1  -2   6  266.27   11.90
   1   2  -6  268.17   12.30
  -1   2   6  279.67   12.10
   1  -2  -6  249.38   12.00
  -1   2  -6  278.07   12.10
  -1   2  -6  296.87   11.80
  -1  -2   6  263.07   12.10
   1  -2  -6  261.57   12.00
  -1   2  -6  263.77   12.00
   1   2   6  246.38   11.90
  -1   2  -6  254.57   12.30
  -1  -2   6  263.47   11.80
   1   2   6  274.07   11.80
  -2  -2  -6  221.68   10.30
  -2   2   6  232.48   10.20
  -2   2   6  222.18   10.10
   2   2  -6  214.48   10.20
   2  -2   6  233.58   10.20
  -2  -2  -6  229.48   10.20
   2   2  -6  208.78   10.40
   2  -2   6  215.88    9.80
   2  -2  -6  226.88   10.20
  -2   2  -6  219.68   10.50
  -2   2  -6  222.58   10.00
  -2   2  -6  223.78   10.00
   2   2   6  216.88    9.90
  -2  -2   6  219.58    9.60
   2   2   6  208.08   10.10
  -2  -2   6  218.48    9.80
   2  -2  -6  216.98   10.20
  -2   2  -6  231.68   10.10
  -2  -2   6  228.28   10.30
  -3   2   6  721.93   30.90
   3   2  -6  723.33   31.80
   3   2  -6  746.03   31.20
  -3   2   6  742.63   30.80
   3  -2   6  718.63   31.30
  -3  -2  -6  729.13   31.60
   3   2  -6  741.13   31.50
   3  -2   6  707.93   30.90
   3  -2   6  747.33   30.40
  -3  -2  -6  712.93   31.40
  -3   2  -6  739.23   31.30
  -3  -2   6  773.02   30.40
  -3  -2   6  640.14   31.00
   3   2   6  708.53   30.80
   3   2   6  674.63   31.10
  -3   2  -6  701.63   31.30
   3  -2  -6  741.73   31.60
  -3   2  -6  697.33   31.80
  -3   2  -6  730.33   31.30
   3  -2  -6  757.92   30.90
  -4  -2  -6    6.00    1.20
   4   2  -6    6.10    1.20
  -4  -2  -6    4.90    1.10
   4  -2   6    5.20    1.20
  -4   2   6    7.90    1.20
   4  -2   6    6.50    0.90
  -4   2   6    5.50    1.20
   4  -2   6    5.60    1.10
   4   2  -6    8.30    1.60
   4  -2   6    7.90    1.80
   4   2  -6    5.50    1.00
   4  -2  -6    5.20    1.20
   4  -2  -6    6.50    0.90
   4   2   6   10.80    1.80
  -4   2  -6    4.20    1.00
  -4  -2   6    6.70    1.30
  -4  -2   6    7.60    1.10
   4   2   6    6.50    1.20
   5   2  -6  154.78    7.30
  -5  -2  -6  149.29    7.60
  -5   2   6  157.38    7.90
   5   2  -6  150.58    8.10
   5   2  -6  152.48    7.50
   5  -2   6  160.48    8.00
  -5  -2  -6  150.78    7.50
  -5   2   6  151.68    7.60
   5  -2   6  152.08    7.60
   5  -2  -6  143.39    7.00
  -5   2  -6  147.29    7.50
   5   2   6  149.49    8.40
  -5  -2   6  153.48    7.50
   5  -2  -6  124.19    7.50
   5   2   6  154.88    7.90
  -5  -2   6  151.68    8.00
   6  -2   6  115.19    6.30
  -6   2   6  120.89    6.70
  -6  -2  -6  113.89    6.50
  -6  -2  -6  108.89    6.40
   6   2  -6  114.59    6.40
   6   2  -6  116.29    6.20
   6  -2   6  122.99    6.70
  -6  -2   6  114.39    6.20
   6  -2  -6  120.09    6.70
   6  -2  -6  120.69    6.00
   6   2   6  119.59    7.40
  -6  -2   6  116.59    6.70
  -6   2  -6  120.79    6.60
   6   2   6  125.49    6.80
  -7  -2  -6   25.80    3.00
   7   2  -6   21.30    2.60
  -7   2   6   24.30    2.90
  -7  -2  -6   25.20    3.00
   7   2  -6   22.00    2.60
   7  -2   6   21.60    2.90
   7   2   6   27.70    3.10
  -7   2  -6   18.20    2.60
  -7  -2   6   24.40    3.00
  -7  -2   6   27.40    2.80
   7  -2  -6   28.20    2.80
   7   2   6   24.20    3.60
   7  -2  -6   28.90    3.20
  -8  -2  -6   42.80    4.40
  -8   2   6   53.39    4.40
   8  -2   6   56.69    4.60
   8   2  -6   48.70    3.90
   8   2  -6   49.70    3.90
  -8  -2   6   58.19    4.10
   8   2   6   55.79    4.60
  -8  -2   6   60.79    4.60
  -8   2  -6   62.99    4.50
   8  -2  -6   48.10    4.00
   9   2  -6   48.10    4.40
   9  -2   6   47.40    4.90
  -9  -2  -6   36.80    4.20
  -9   2   6   49.10    4.90
   9   2   6   51.89    5.00
   9  -2  -6   48.50    4.20
  -9   2  -6   37.50    4.30
  -9  -2   6   53.99    4.90
 -10  -2  -6    5.40    2.30
 -10   2   6    9.50    2.50
  10  -2   6    6.00    2.00
  10   2   6    8.80    2.60
 -10   2  -6    8.00    2.60
  10  -2  -6    8.70    2.60
  11  -2   6    5.00    2.70
 -11   2   6    4.00    2.50
 -11  -2  -6    0.00    2.10
  11   2   6   -0.80    2.20
 -11   2  -6    1.60    2.40
   0   3   6    0.00    0.30
   0   3   6    0.10    0.30
   0   3   6    0.70    0.30
   0  -3  -6    0.50    0.40
   0  -3  -6   -0.60    0.40
   0   3  -6    0.40    0.50
   0  -3  -6    0.50    0.50
   0  -3   6    0.70    0.40
   0  -3   6   -0.10    0.40
   0   3  -6    0.50    0.50
   0   3  -6   -0.30    0.50
  -1   3   6  571.24   22.90
  -1   3   6  511.05   22.90
   1   3  -6  589.84   25.00
  -1  -3  -6  567.54   24.90
   1  -3   6  532.85   23.30
   1  -3   6  578.64   23.20
  -1   3   6  525.15   23.40
   1   3  -6  544.65   25.10
  -1  -3  -6  602.44   25.20
  -1  -3  -6  577.04   24.40
  -1   3  -6  567.44   24.90
  -1   3  -6  577.74   24.50
  -1   3  -6  589.84   25.10
  -1  -3   6  490.85   23.30
   1   3   6  570.74   23.10
   1  -3  -6  590.94   24.90
  -1  -3   6  543.95   23.20
   1  -3  -6  561.94   24.40
   1  -3  -6  559.24   24.90
   1   3   6  518.35   23.00
  -1   3  -6  583.94   25.00
   2   3  -6  103.19    5.50
  -2  -3  -6   96.59    5.40
   2   3  -6  100.19    5.20
  -2   3   6  100.09    4.90
   2  -3   6   98.59    5.10
  -2   3   6   98.69    5.10
   2  -3   6  101.49    4.80
  -2  -3  -6   95.99    5.10
  -2   3  -6  103.89    5.20
   2   3   6   98.99    5.00
   2  -3  -6   89.39    5.10
   2   3   6  104.69    5.10
   2  -3  -6   99.99    5.20
  -2  -3   6   99.99    5.00
  -2  -3   6  103.39    5.40
  -2   3  -6  105.19    5.20
   2  -3  -6  104.89    4.60
  -2   3  -6  101.09    4.90
  -2   3  -6  104.39    5.50
  -3  -3  -6  146.79    7.50
  -3   3   6  165.88    7.40
   3  -3   6  152.08    7.50
  -3  -3  -6  152.18    7.80
  -3   3   6  144.89    7.40
   3   3  -6  155.78    7.90
   3   3  -6  155.48    7.60
   3   3  -6  158.18    7.40
   3  -3   6  150.88    6.90
  -3  -3   6  156.78    7.70
   3  -3  -6  155.88    7.00
  -3   3  -6  158.78    7.50
   3   3   6  134.89    7.50
   3   3   6  155.28    7.40
  -3   3  -6  154.88    7.40
   3  -3  -6  143.89    7.60
  -3  -3   6  153.98    6.80
  -3   3  -6  156.08    7.90
  -3   3  -6  157.28    7.60
  -4  -3  -6  129.29    7.10
   4   3  -6  139.89    7.00
   4  -3   6  123.79    6.70
  -4   3   6  135.69    6.50
  -4  -3  -6  135.19    6.90
   4  -3   6  131.29    6.70
   4   3  -6  143.29    7.50
   4   3  -6  132.69    6.70
  -4   3   6  126.49    6.70
   4  -3  -6  139.29    7.10
   4  -3  -6  130.89    6.40
  -4  -3   6  133.39    6.10
   4   3   6  129.59    6.70
  -4  -3   6  126.69    6.90
   4   3   6  127.39    7.00
  -4   3  -6  139.69    6.90
  -5  -3  -6   61.09    4.10
   5  -3   6   65.59    4.00
   5  -3   6   68.19    4.20
   5   3  -6   60.29    3.90
  -5   3   6   67.39    3.80
   5   3  -6   67.59    4.70
   5   3  -6   61.69    3.70
  -5  -3  -6   63.89    4.00
  -5   3   6   63.29    4.00
  -5   3  -6   62.89    4.00
  -5  -3   6   59.49    4.10
   5  -3  -6   59.59    3.50
   5   3   6   54.49    4.30
   5  -3  -6   56.59    4.00
  -5  -3   6   62.29    3.60
   5   3   6   64.29    4.10
   6  -3   6  223.68   11.20
   6   3  -6  220.98   10.70
  -6   3   6  217.98   11.10
   6   3  -6  230.48   11.90
  -6  -3  -6  218.08   11.10
   6  -3   6  232.68   11.00
   6   3  -6  217.88   10.80
  -6  -3  -6  220.68   10.90
   6  -3  -6  223.08   10.40
   6   3   6  230.18   11.80
  -6   3  -6  224.78   11.10
   6   3   6  216.38   11.10
   6  -3  -6  213.68   11.10
  -6  -3   6  239.28   10.60
  -6  -3   6  206.18   11.20
   7   3  -6  261.07   12.40
  -7   3   6  250.37   13.00
   7   3  -6  262.97   12.60
  -7  -3  -6  249.08   12.80
   7  -3   6  249.78   12.70
   7  -3   6  265.07   13.10
  -7  -3  -6  263.67   12.70
   7   3   6  251.47   13.00
  -7  -3   6  266.27   13.20
   7   3   6  287.17   14.20
   7  -3  -6  246.88   12.80
  -7  -3   6  277.77   12.60
  -7   3  -6  244.58   12.70
  -8  -3  -6  132.89    8.70
   8   3  -6  136.69    7.60
  -8   3   6  134.79    7.70
  -8  -3  -6  133.89    7.80
   8  -3   6  129.69    7.70
   8  -3  -6  131.89    7.90
  -8   3  -6  128.59    7.80
   8   3   6  125.89    7.60
  -8  -3   6  122.39    7.60
  -9  -3  -6    9.90    2.40
   9   3  -6   16.20    2.70
   9  -3   6   16.40    3.00
  -9   3   6   13.80    2.70
  -9   3  -6    9.30    2.40
   9  -3  -6   17.60    2.90
   9   3   6   13.10    2.80
 -10   3   6   81.89    6.40
  10  -3   6   79.69    6.30
 -10  -3  -6   79.59    6.30
 -10   3  -6   87.19    6.50
  10   3   6   81.59    6.30
  10  -3  -6   85.89    6.40
  11  -3   6   18.20    3.90
 -11   3   6   19.40    4.00
 -11  -3  -6   25.20    4.30
 -11   3  -6   16.80    4.00
  11   3   6   20.40    4.20
   0   4   6    5.00    0.50
   0   4  -6    5.90    1.20
   0   4   6    5.20    0.50
   0   4  -6    5.50    1.10
   0  -4  -6    7.80    0.90
   0  -4   6    6.80    1.10
   0  -4  -6    7.30    1.00
   0  -4  -6    7.30    1.30
   0   4  -6    7.60    1.30
   0  -4   6    5.50    1.00
   0  -4  -6    7.00    1.10
  -1   4   6 1126.69   48.40
   1   4  -6 1206.88   51.69
  -1  -4  -6 1126.39   50.99
   1   4  -6 1200.18   51.59
   1   4  -6 1141.09   51.69
   1  -4   6 1162.88   49.20
  -1  -4  -6 1197.78   51.59
  -1   4   6 1159.18   48.40
  -1  -4  -6 1222.28   51.79
   1  -4   6 1199.68   48.90
  -1   4   6 1112.29   49.20
   1  -4  -6 1223.08   51.09
   1   4   6 1193.08   48.60
   1  -4  -6 1277.87   51.59
  -1  -4   6 1178.28   49.10
  -1   4  -6 1218.48   51.69
  -1   4  -6 1222.38   51.69
  -1   4  -6 1218.38   51.59
   1   4   6 1188.68   48.90
  -1  -4   6 1141.39   49.30
   1   4   6 1091.79   48.60
  -1   4  -6 1326.67   51.09
   1  -4  -6 1186.98   51.49
  -2   4   6  156.78    7.00
   2  -4   6  164.48    7.00
  -2  -4  -6  146.39    7.40
   2   4  -6  151.98    7.60
   2  -4   6  137.59    7.40
  -2  -4  -6  141.89    7.70
   2   4  -6  152.28    7.80
  -2   4   6  158.38    7.40
  -2   4   6  148.29    6.90
  -2  -4   6  155.68    7.30
  -2   4  -6  154.88    7.20
   2  -4  -6  158.68    7.00
  -2  -4   6  144.79    7.60
   2  -4  -6  141.69    7.40
   2   4   6  156.08    7.30
  -2   4  -6  159.78    7.50
   2   4   6  135.99    7.10
  -2   4  -6  162.88    7.80
   2  -4  -6  154.28    7.50
  -2   4  -6  152.68    7.60
  -3  -4  -6  310.47   14.20
   3   4  -6  270.37   13.80
  -3   4   6  301.37   13.50
   3  -4   6  297.97   13.50
  -3   4   6  328.07   13.30
   3   4  -6  302.67   14.20
  -3  -4  -6  306.27   13.80
   3  -4   6  281.37   12.70
   3   4   6  278.27   13.40
  -3   4  -6  295.57   14.10
  -3   4  -6  277.57   13.70
  -3  -4   6  296.17   13.30
  -3   4  -6  332.97   13.70
  -3  -4   6  306.97   12.60
   3   4   6  283.67   13.30
   3  -4  -6  315.07   13.30
  -3   4  -6  295.87   13.90
  -3  -4   6  257.77   13.60
   3  -4  -6  306.57   14.00
  -4  -4  -6   50.99    3.90
   4   4  -6   57.99    3.60
   4  -4   6   52.19    3.60
  -4   4   6   56.49    3.30
   4   4  -6   58.79    4.10
  -4   4   6   55.99    3.60
   4   4  -6   57.59    3.70
  -4  -4  -6   60.79    3.70
   4  -4  -6   53.49    3.80
  -4   4  -6   58.49    3.60
  -4  -4   6   53.69    3.80
   4   4   6   51.49    3.50
   4   4   6   50.89    3.80
   4  -4  -6   59.69    3.20
  -4  -4   6   62.49    3.00
  -5  -4  -6  206.28   10.40
   5   4  -6  194.58    9.80
  -5   4   6  199.58    9.90
   5   4  -6  200.08   10.60
   5   4  -6  197.38   10.00
   5  -4   6  192.38    9.90
  -5  -4  -6  208.78   10.00
   5  -4   6  202.38    9.80
  -5  -4   6  193.78   10.10
   5   4   6  204.58   10.20
   5  -4  -6  201.98    9.50
  -5   4  -6  211.98   10.10
   5   4   6  188.28    9.70
   5  -4  -6  202.78   10.30
   6  -4   6    8.80    1.70
  -6  -4  -6   11.50    2.10
   6  -4   6   10.20    1.80
   6   4  -6   10.90    2.50
   6   4  -6   11.70    1.90
  -6   4   6   13.70    2.20
   6   4  -6   11.00    1.80
  -6  -4  -6   12.90    2.00
   6   4   6   15.20    2.60
   6  -4  -6    9.90    1.90
   6   4   6    8.90    1.80
  -6   4  -6   11.90    2.00
  -6  -4   6    8.80    1.90
  -7   4   6  111.89    6.50
   7   4  -6  115.39    6.40
  -7  -4  -6  102.89    6.60
  -7  -4  -6  111.89    6.40
   7   4  -6  104.59    6.30
   7  -4   6  103.19    6.50
   7  -4   6  105.89    6.30
  -7   4  -6  106.89    6.60
  -7  -4   6  104.79    6.70
   7   4   6   99.69    6.40
   7   4   6  103.59    7.10
   7  -4  -6  104.99    6.70
   8  -4   6    5.70    1.80
  -8  -4  -6    5.90    1.90
  -8  -4  -6    7.60    1.90
  -8   4   6    7.30    2.00
   8   4  -6    6.10    1.80
   8   4   6   11.60    3.10
  -8  -4   6    9.90    2.20
   8   4   6    6.50    2.00
  -8   4  -6    6.50    1.80
   8  -4  -6    7.60    2.10
   9  -4   6    7.20    2.10
  -9  -4  -6   13.60    2.80
  -9   4   6    8.60    2.50
   9   4  -6    9.10    2.30
   9   4   6    9.10    2.40
  -9   4  -6    8.80    2.20
  -9  -4   6   11.60    2.70
   9  -4  -6   15.30    2.90
 -10  -4  -6   -0.10    1.80
  10  -4   6    1.20    1.70
  10   4  -6    1.10    2.20
 -10   4   6    3.80    2.00
  10   4   6    0.50    1.90
  10  -4  -6   -2.40    1.30
 -10   4  -6   -0.30    1.50
   0  -5  -6   -0.30    0.60
   0   5  -6   -0.50    0.60
   0  -5   6    0.90    0.60
   0  -5  -6    0.70    0.70
   0  -5  -6    0.20    0.50
   0  -5  -6   -0.30    0.40
   0  -5   6   -1.00    0.50
   0   5  -6    0.50    0.50
   0   5  -6    1.00    0.60
   1   5  -6   95.09    5.30
   1  -5   6   87.89    4.60
  -1  -5  -6   95.79    5.10
  -1  -5  -6  109.29    4.80
  -1  -5  -6  100.09    5.50
   1   5  -6   94.39    5.30
   1   5  -6  101.09    5.40
   1  -5   6   86.79    4.90
   1   5   6   88.49    4.60
  -1  -5   6   90.09    4.90
   1   5   6   84.69    4.10
  -1  -5   6   98.19    5.10
  -1   5  -6   92.19    5.30
   1  -5  -6  106.29    5.20
   1  -5  -6  101.79    5.30
  -1   5  -6   91.49    4.60
  -1   5  -6   88.69    5.20
   1   5   6   91.69    4.20
   1  -5  -6   89.59    5.10
   1  -5  -6   94.99    4.80
  -1   5  -6   93.39    5.30
  -2  -5  -6  237.68   10.50
   2  -5   6  224.58   10.80
   2   5  -6  242.88   11.40
  -2   5   6  237.68   10.20
  -2   5   6  227.08   10.10
  -2  -5  -6  243.38   11.20
   2   5  -6  237.98   11.50
  -2  -5  -6  249.48   11.60
   2  -5   6  229.58   10.30
  -2   5   6  225.68   10.70
  -2   5  -6  238.08   11.30
  -2   5  -6  233.18   11.40
  -2  -5   6  222.18   11.00
   2  -5  -6  221.08   11.10
   2  -5  -6  240.28   10.70
  -2  -5   6  227.88   10.80
  -2   5  -6  251.17   10.80
  -2   5  -6  234.68   11.40
   2  -5  -6  235.98   11.30
   2   5   6  233.78   10.40
   2   5   6  233.68   10.70
  -3  -5  -6   42.20    3.00
   3   5  -6   51.29    3.60
  -3   5   6   42.30    2.80
   3   5  -6   46.70    3.20
  -3  -5  -6   41.40    3.30
   3  -5   6   43.90    3.10
  -3   5   6   40.70    3.00
   3   5   6   42.80    2.90
   3  -5  -6   42.90    3.20
  -3   5  -6   44.20    3.40
   3   5   6   44.30    2.90
  -3  -5   6   39.00    2.90
  -3   5  -6   46.30    3.30
  -3   5  -6   41.80    2.80
  -3   5  -6   43.90    3.10
  -3  -5   6   41.00    3.20
   3  -5  -6   45.10    2.70
   4   5  -6  186.98   10.20
  -4  -5  -6  202.08    9.70
   4   5  -6  201.48    9.70
  -4  -5  -6  199.88   10.20
  -4   5   6  176.58    9.20
   4  -5   6  198.18    9.50
   4  -5   6  173.98    9.30
   4   5  -6  202.98    9.80
   4   5   6  192.28    9.30
  -4  -5   6  194.58    9.80
  -4   5  -6  210.88    9.70
   4  -5  -6  180.98    9.90
   4   5   6  186.48    9.40
   4  -5  -6  200.78    9.30
   5  -5   6   79.79    4.80
   5   5  -6   77.79    4.70
  -5  -5  -6   70.99    4.60
  -5   5   6   65.29    4.50
   5   5  -6   71.99    4.60
  -5  -5  -6   70.29    5.00
   5  -5   6   76.29    4.70
   5   5  -6   82.99    5.60
  -5  -5   6   65.09    4.70
  -5   5  -6   75.19    4.70
   5  -5  -6   73.49    4.90
   5   5   6   69.09    4.90
   5  -5  -6   80.39    4.40
   5   5   6   70.19    4.60
   6   5  -6  167.98    8.60
  -6  -5  -6  163.48    9.10
   6   5  -6  159.98    9.50
   6   5  -6  159.58    8.50
   6  -5   6  138.99    8.00
   6  -5   6  150.08    8.20
  -6   5   6  149.19    8.20
  -6  -5  -6  178.08    8.60
   6  -5  -6  154.78    8.90
   6   5   6  144.09    8.60
   6   5   6  150.08    8.20
  -6  -5   6  163.48    8.70
  -6   5  -6  146.69    8.50
  -7  -5  -6   52.79    4.40
   7  -5   6   44.60    3.90
  -7  -5  -6   47.50    3.90
   7  -5   6   47.00    4.00
  -7   5   6   51.49    4.20
   7   5  -6   43.40    5.20
   7   5  -6   46.20    3.90
   7   5   6   51.59    4.20
   7  -5  -6   47.70    4.10
  -7  -5   6   48.50    4.30
  -7   5  -6   55.39    4.10
   7   5   6   59.19    5.60
  -8  -5  -6  107.89    7.30
   8   5  -6  111.59    6.90
  -8   5   6  109.19    7.20
   8  -5   6  110.49    7.00
   8  -5   6  108.19    7.10
  -8  -5  -6  117.19    7.00
  -8   5  -6  121.19    7.40
  -8  -5   6  111.89    7.40
   8   5   6  116.09    8.10
   8  -5  -6  115.69    7.40
   8   5   6  115.59    7.20
  -9   5   6    2.30    1.90
  -9  -5  -6    1.70    1.90
   9  -5   6    1.30    1.60
  -9  -5  -6    2.60    1.70
   9   5  -6   -0.50    1.40
   9  -5  -6   -0.50    1.40
  -9   5  -6    0.70    1.30
  -9  -5   6    1.70    1.60
   9   5   6    1.80    1.80
 -10  -5  -6   66.09    6.50
 -10   5   6   74.79    6.20
  10   5  -6   79.59    6.10
  10  -5   6   70.89    6.00
  10  -5  -6   65.49    5.90
 -10   5  -6   82.19    6.20
  10   5   6   60.29    6.30
   0   6  -6  424.16   18.60
   0  -6  -6  403.86   18.20
   0   6  -6  397.76   18.50
   0   6  -6  430.76   18.80
   0  -6  -6  419.36   18.20
   0  -6  -6  416.26   18.40
   0  -6   6  402.86   17.50
   0  -6  -6  388.86   18.60
   0  -6   6  369.76   17.30
   1  -6   6   51.99    3.40
  -1  -6  -6   49.30    3.60
  -1  -6  -6   49.80    3.00
   1   6  -6   49.90    3.40
  -1  -6  -6   47.30    3.20
   1  -6   6   52.79    3.20
   1   6  -6   54.79    3.60
   1   6  -6   52.29    3.50
  -1   6  -6   57.09    2.80
   1  -6  -6   51.09    3.30
   1  -6  -6   49.70    3.40
   1  -6  -6   51.09    3.00
  -1  -6   6   60.29    3.60
  -1  -6   6   53.59    3.50
   1   6   6   50.19    3.20
  -1   6  -6   46.30    3.40
  -1   6  -6   49.50    3.50
   1   6   6   49.99    2.50
   1   6   6   52.79    2.60
   1  -6  -6   52.39    3.30
  -1   6  -6   45.40    3.40
  -2   6   6  111.49    5.60
  -2  -6  -6  105.19    6.10
   2  -6   6  102.09    5.70
   2   6  -6  102.89    5.80
   2  -6   6  102.99    5.20
   2   6  -6  104.29    6.00
  -2   6   6  110.39    4.90
  -2   6   6  100.99    4.80
  -2  -6  -6  106.59    5.60
  -2  -6   6  102.09    5.70
  -2   6  -6  112.19    5.30
   2   6   6  103.89    5.20
  -2   6  -6  103.49    5.80
   2   6   6   99.09    5.80
   2   6   6   97.19    5.50
   2   6   6   99.39    5.80
   2  -6  -6  100.19    5.80
   2  -6  -6  113.39    5.40
   2  -6  -6   93.49    5.60
  -2   6  -6  106.69    5.90
  -2   6  -6   97.59    5.90
  -2  -6   6  108.19    6.00
   3   6  -6  277.77   14.00
   3  -6   6  300.57   13.90
  -3   6   6  285.47   13.80
  -3  -6  -6  300.87   14.50
  -3  -6  -6  315.17   14.00
  -3   6   6  292.67   13.50
   3   6  -6  304.67   14.40
  -3  -6   6  304.77   14.20
   3   6   6  282.87   13.50
  -3   6  -6  307.97   14.30
  -3   6  -6  292.67   13.70
   3  -6  -6  300.07   14.20
  -3   6  -6  284.87   14.20
   3   6   6  297.97   13.70
  -3  -6   6  301.47   13.90
  -3   6  -6  301.07   14.20
   3  -6  -6  314.17   13.60
   4  -6   6   35.60    3.10
  -4   6   6   33.50    2.80
   4   6  -6   34.80    2.90
   4   6  -6   32.20    2.90
  -4  -6  -6   36.50    3.70
  -4  -6  -6   36.20    2.90
   4  -6   6   29.70    3.10
   4   6  -6   34.40    3.60
  -4  -6   6   34.10    3.10
   4  -6  -6   31.00    3.30
   4  -6  -6   36.70    2.60
   4   6   6   34.90    3.00
  -4   6  -6   33.60    2.70
   4   6   6   31.20    3.10
  -5   6   6    9.30    1.80
   5  -6   6   11.50    2.10
   5  -6   6   13.40    2.20
   5   6  -6   17.30    2.90
   5   6  -6   11.90    2.00
  -5  -6  -6   16.90    2.70
  -5  -6  -6   13.80    2.00
   5   6  -6   13.60    2.10
   5   6   6   15.60    2.20
   5  -6  -6   11.00    2.10
  -5  -6   6   11.80    2.10
  -5   6  -6   13.00    2.00
   5   6   6   10.70    2.10
  -6  -6  -6   32.10    3.70
  -6   6   6   30.70    3.40
   6   6  -6   40.20    4.50
   6   6  -6   32.70    3.70
   6   6  -6   24.30    2.90
   6  -6   6   25.50    3.00
   6  -6   6   27.10    3.10
  -6  -6  -6   30.70    3.20
   6   6   6   25.70    3.20
  -6  -6   6   25.20    3.40
  -6   6  -6   28.30    3.10
   6  -6  -6   19.60    2.90
   6   6   6   33.60    3.90
   7   6  -6   14.00    2.40
  -7  -6  -6   11.40    2.40
   7   6  -6    5.00    2.60
  -7   6   6    9.90    2.10
   7  -6   6    8.30    2.00
   7  -6   6   14.10    2.50
  -7  -6  -6   10.40    2.10
   7   6   6   15.20    2.50
   7  -6  -6   10.80    2.30
  -7  -6   6   15.20    2.60
  -7   6  -6   15.70    2.50
   7   6   6   13.50    2.80
   8   6  -6   11.50    2.40
  -8   6   6   11.70    2.30
  -8  -6  -6    9.00    2.40
  -8  -6  -6   11.80    2.40
   8  -6   6   12.20    2.40
   8  -6   6   15.10    2.70
  -8  -6   6   12.40    2.80
  -8   6  -6   17.20    3.00
   8   6   6   16.10    3.30
   8  -6  -6    8.70    2.30
   8   6   6   12.10    2.60
  -9   6   6    0.60    1.70
  -9  -6  -6    4.00    2.30
   9   6  -6    3.80    1.90
   9  -6   6    1.00    1.70
   9  -6  -6    1.10    1.70
  -9  -6   6    5.10    2.10
   9   6   6    1.70    3.20
  -9   6  -6    2.50    1.80
   9   6   6    1.90    1.80
  10  -6   6    5.60    2.60
 -10   6   6    3.50    2.60
  10   6  -6    6.40    2.50
  10   6   6   -0.40    2.20
 -10  -6   6    2.70    2.50
  10  -6  -6   10.10    2.60
 -10   6  -6    6.80    2.40
   0  -7   6    0.30    0.70
   0   7  -6    0.20    0.90
   0   7  -6   -0.10    0.70
   0   7  -6    0.20    0.80
   0  -7  -6    1.00    0.70
   0  -7  -6    1.20    0.70
   0  -7  -6    0.80    0.80
   0  -7   6   -0.10    0.70
   0  -7  -6    0.40    0.60
   1   7  -6   15.00    2.10
  -1  -7  -6   17.20    2.00
   1   7  -6   15.70    2.10
   1  -7   6   19.80    2.00
   1   7  -6   12.60    1.90
  -1  -7  -6   18.20    1.90
  -1  -7  -6   18.70    2.50
   1  -7   6   12.30    1.80
   1   7   6   13.40    1.00
   1   7   6   11.30    1.70
   1  -7  -6   15.50    2.10
  -1   7  -6   17.10    2.30
   1  -7  -6   16.20    2.00
  -1   7  -6   15.20    2.10
  -1   7  -6   16.20    2.20
   1  -7  -6   13.90    1.70
  -1  -7   6   13.00    2.00
   1  -7  -6   18.10    2.10
  -1  -7   6   17.20    2.20
   1   7   6   14.90    1.00
   2  -7   6   55.89    3.90
   2   7  -6   51.39    4.00
  -2  -7  -6   65.59    4.40
  -2   7   6   61.59    2.90
  -2   7   6   55.79    2.80
   2   7  -6   62.19    4.20
  -2   7   6   54.29    3.70
  -2  -7  -6   61.09    3.80
   2   7  -6   53.99    3.90
   2  -7  -6   63.89    4.10
   2  -7  -6   59.19    3.60
  -2   7  -6   65.09    3.60
   2   7   6   54.69    3.70
  -2   7  -6   54.09    4.00
  -2  -7   6   64.49    4.20
  -2   7  -6   56.49    4.20
  -2  -7   6   58.09    3.90
   2  -7  -6   61.89    3.90
   2   7   6   57.39    3.30
  -2   7  -6   57.79    4.10
  -3  -7  -6   68.49    4.30
   3   7  -6   67.99    4.70
   3  -7   6   62.39    4.10
   3   7  -6   59.89    4.30
  -3  -7  -6   68.69    4.90
  -3   7   6   54.29    3.90
  -3  -7   6   56.49    4.00
  -3   7  -6   62.89    4.60
  -3   7  -6   71.09    4.10
   3  -7  -6   70.29    4.60
   3  -7  -6   65.99    4.00
  -3  -7   6   62.59    4.40
   3   7   6   61.29    3.70
  -3   7  -6   73.19    4.70
  -3   7  -6   69.49    4.60
   3   7   6   58.29    4.00
   4   7  -6  103.39    6.30
  -4  -7  -6  114.39    6.20
   4   7  -6  110.39    6.80
  -4   7   6  112.59    6.30
   4  -7   6  105.09    6.30
   4   7  -6  113.99    6.40
  -4  -7  -6  109.39    6.90
  -4   7  -6   97.49    6.50
  -4   7  -6  105.79    6.70
  -4  -7   6  107.89    6.60
   4  -7  -6  115.29    6.00
  -4   7  -6  107.59    6.50
   4  -7  -6  117.29    6.70
  -4   7  -6  120.39    6.20
   4   7   6  108.09    6.20
   4   7   6  106.49    6.20
  -5   7   6   30.20    3.20
   5  -7   6   38.80    3.80
   5   7  -6   34.20    3.50
  -5  -7  -6   30.10    3.10
   5  -7   6   20.90    2.80
   5   7  -6   33.30    4.10
  -5  -7  -6   27.90    3.50
   5   7  -6   27.10    3.20
  -5  -7   6   35.00    3.80
   5   7   6   28.30    3.10
  -5   7  -6   32.40    3.20
   5  -7  -6   30.00    3.50
   5   7   6   26.50    3.20
   6  -7   6   34.60    3.70
   6  -7   6   27.60    3.40
  -6   7   6   31.90    3.50
   6   7  -6   31.60    3.40
  -6  -7  -6   32.80    4.10
   6   7  -6   32.10    4.20
  -6  -7  -6   34.10    3.50
   6   7   6   26.30    3.20
   6  -7  -6   35.20    4.00
  -6   7  -6   35.50    3.60
  -6  -7   6   31.70    3.90
   6   7   6   40.70    4.30
  -7  -7  -6   13.10    2.80
   7  -7   6   17.70    2.90
   7   7  -6   12.60    3.10
  -7   7   6   12.60    2.30
   7  -7   6   13.10    2.40
   7   7  -6   15.90    2.60
   7   7   6   11.20    2.70
   7  -7  -6   16.40    2.90
  -7  -7   6   17.70    3.10
  -7   7  -6   12.70    2.50
   7   7   6   16.20    2.70
   8   7  -6   10.30    2.40
   8  -7   6   20.50    3.30
   8  -7   6   22.30    3.30
  -8  -7  -6   24.60    3.80
  -8   7   6   28.30    3.70
   8   7   6   12.90    2.60
   8  -7  -6   19.20    3.30
  -8  -7   6   17.10    3.30
  -8   7  -6   15.70    2.80
   8   7   6   22.10    4.00
  -9   7   6   29.00    4.20
   9  -7   6   22.60    3.90
  -9  -7  -6   27.90    4.30
   9   7  -6   28.10    3.80
   9  -7   6   26.50    3.90
  -9   7  -6   25.20    3.80
   9   7   6   28.30    3.90
  -9  -7   6   29.90    4.30
   9  -7  -6   21.10    3.60
   9   7   6   20.50    4.30
 -10  -7  -6   49.70    7.60
 -10   7   6   52.09    5.90
  10  -7   6   42.30    5.30
  10   7  -6   51.29    5.70
  10  -7  -6   43.40    5.40
 -10  -7   6   47.80    6.10
 -10   7  -6   40.30    5.10
  10   7   6   49.90    6.00
   0  -8   6   21.20    2.40
   0  -8  -6   19.60    2.60
   0  -8  -6   21.90    2.30
   0   8  -6   17.10    2.30
   0   8  -6   15.60    2.30
   0  -8  -6   20.60    2.30
   0   8  -6   13.90    2.20
   0  -8   6   12.30    1.90
   0  -8  -6   23.00    2.30
   1  -8   6   88.29    5.40
  -1  -8  -6  102.79    6.10
   1   8  -6   91.69    5.70
  -1  -8  -6   91.29    5.20
   1  -8   6   86.69    5.10
   1   8  -6   85.99    5.70
   1   8  -6   93.09    5.60
  -1  -8  -6   93.89    5.40
  -1  -8  -6  101.89    5.50
  -1   8  -6   86.79    5.80
  -1   8  -6  101.59    5.90
  -1  -8   6   86.09    5.30
  -1  -8   6   93.49    5.50
   1   8   6   90.29    4.10
   1   8   6   86.99    4.10
  -1   8  -6   92.99    5.60
   1  -8  -6   98.59    5.50
   1  -8  -6   95.79    5.70
   1  -8  -6   95.69    5.60
   1  -8  -6  100.19    5.40
   2  -8   6   87.19    5.50
   2   8  -6   95.49    5.80
  -2   8   6   88.49    4.20
  -2   8   6   88.49    4.10
  -2  -8  -6   98.59    5.40
  -2  -8  -6   82.79    5.70
   2   8  -6   86.19    5.50
  -2   8   6   96.99    5.40
   2   8  -6   89.49    5.70
  -2  -8   6   87.39    5.50
   2   8   6   87.49    5.30
  -2   8  -6   89.09    5.70
  -2   8  -6   90.59    5.60
   2  -8  -6   95.39    5.20
   2  -8  -6   91.09    5.40
   2   8   6   92.49    4.70
  -2  -8   6   83.09    5.30
   2  -8  -6  100.89    5.80
  -2   8  -6   95.59    5.90
   3   8  -6  162.28    9.00
   3  -8   6  155.88    8.50
  -3   8   6  151.18    8.30
  -3  -8  -6  183.48    8.80
  -3  -8  -6  173.18    9.50
   3   8  -6  170.98    9.30
   3   8   6  171.58    8.50
   3  -8  -6  171.18    9.20
  -3   8  -6  173.48    9.20
  -3  -8   6  159.58    8.60
  -3   8  -6  164.48    9.10
  -3  -8   6  154.48    8.80
   3   8   6  161.58    8.00
  -3   8  -6  163.58    9.30
   3  -8  -6  172.08    8.60
  -4  -8  -6   54.79    4.70
   4  -8   6   61.89    4.20
   4   8  -6   48.60    4.10
  -4  -8  -6   66.79    4.20
   4   8  -6   56.79    4.30
  -4   8   6   50.49    3.90
   4   8  -6   59.99    4.70
  -4   8  -6   55.89    4.50
  -4   8  -6   61.09    4.60
   4   8   6   47.90    3.70
  -4   8  -6   52.09    3.90
   4  -8  -6   56.49    4.40
   4   8   6   50.79    3.90
  -4  -8   6   58.89    4.60
  -4   8  -6   53.69    4.40
  -5  -8  -6   47.00    4.40
   5   8  -6   45.50    3.90
   5   8  -6   51.09    5.10
  -5   8   6   46.60    3.70
   5  -8   6   42.30    4.20
   5  -8  -6   40.80    4.30
   5   8   6   41.10    4.10
  -5   8  -6   48.60    4.70
  -5   8  -6   53.99    3.90
  -5  -8   6   41.00    4.50
  -5   8  -6   46.60    4.70
   5   8   6   39.50    3.90
  -5   8  -6   49.80    4.80
   6   8  -6   24.60    3.10
   6  -8   6   18.80    3.00
  -6   8   6   15.40    2.60
  -6  -8  -6   24.30    3.50
   6   8  -6   19.60    3.50
   6  -8   6   19.20    3.10
  -6   8  -6   19.80    2.70
   6   8   6   27.60    3.40
   6   8   6   22.40    3.30
   6  -8  -6   15.50    2.70
  -6  -8   6   21.90    3.20
  -7   8   6   13.30    2.60
  -7  -8  -6   10.40    2.60
   7  -8   6   13.20    2.60
   7   8  -6   10.00    2.30
   7  -8   6   13.80    2.70
   7   8  -6   12.00    3.10
   7   8   6   13.00    2.50
  -7   8  -6   14.90    2.60
   7   8   6   14.70    3.30
   7  -8  -6   13.20    2.70
  -7  -8   6   13.90    3.10
  -8  -8  -6    4.90    2.20
  -8   8   6    7.20    2.30
   8  -8   6    9.70    2.70
   8   8  -6   11.20    4.10
   8  -8   6    7.90    2.30
   8   8  -6    6.30    2.00
  -8  -8   6    7.50    2.50
   8   8   6   11.30    2.50
   8  -8  -6    8.30    2.30
   8   8   6    5.50    2.70
  -8   8  -6    9.90    2.50
  -9  -8  -6   15.80    3.50
   9  -8   6   15.70    3.30
   9   8  -6   15.60    3.30
  -9   8   6   13.50    2.90
   9  -8   6   11.20    2.90
  -9  -8   6   16.30    3.50
  -9   8  -6   16.60    3.40
   9   8   6   13.10    3.80
   9  -8  -6   15.70    3.30
   9   8   6   11.60    2.70
   0  -9  -6   -0.50    1.00
   0  -9   6   -0.30    0.80
   0  -9  -6    2.10    1.10
   0   9  -6    0.60    1.00
   0  -9  -6    1.00    1.00
   0  -9   6    0.90    1.10
   0   9  -6    1.30    1.20
   0  -9  -6   -1.20    0.70
   0   9  -6   -0.90    0.70
  -1  -9  -6    8.40    1.60
   1   9  -6    7.80    1.80
  -1  -9  -6    8.60    2.00
  -1  -9  -6    6.00    1.40
   1   9  -6    5.10    1.60
   1  -9   6    7.30    1.70
   1   9  -6    7.20    1.80
   1   9   6    7.60    0.90
  -1  -9   6    6.60    1.70
  -1   9  -6    4.20    1.50
   1  -9  -6    9.00    1.80
   1  -9  -6    8.40    1.60
   1  -9  -6    6.50    1.60
  -1  -9   6    7.60    1.80
  -1   9  -6    6.70    1.60
  -1   9  -6    6.10    1.50
   1  -9  -6    8.50    1.90
  -2  -9  -6  136.59    8.00
   2   9  -6  131.29    7.60
  -2  -9  -6  134.99    7.10
   2  -9   6  117.39    7.10
   2   9  -6  128.29    7.50
   2   9  -6  112.19    7.20
   2   9   6  123.19    6.90
  -2  -9   6  128.39    7.30
  -2   9  -6  130.79    7.60
   2  -9  -6  147.39    7.20
  -2   9  -6  121.19    7.30
  -2  -9   6  125.39    7.10
   2  -9  -6  126.19    7.20
   2  -9  -6  142.99    7.60
  -2   9  -6  129.29    7.70
   2   9   6  114.69    6.00
  -3  -9  -6   50.29    4.40
   3  -9   6   55.39    4.20
   3   9  -6   55.59    4.30
   3   9  -6   50.59    4.40
  -3   9   6   52.99    3.90
  -3   9  -6   54.69    4.50
  -3  -9   6   55.99    4.20
  -3   9  -6   54.69    4.30
   3   9   6   55.09    4.10
  -3  -9   6   52.09    4.40
   3  -9  -6   58.89    4.10
   3  -9  -6   48.00    4.10
  -3   9  -6   54.69    4.30
   3   9   6   51.29    3.60
  -4  -9  -6   75.49    6.10
  -4   9   6   80.39    5.40
   4  -9   6   91.89    5.80
   4   9  -6   85.89    5.80
   4   9  -6   84.69    5.70
   4   9  -6   97.29    6.30
  -4   9  -6   90.19    6.20
  -4   9  -6   79.89    5.80
   4  -9  -6   88.99    6.00
  -4  -9   6   83.19    5.90
  -4   9  -6   89.29    6.00
   4   9   6   76.29    5.10
   4   9   6   83.99    5.50
  -5  -9  -6   51.29    4.80
   5  -9   6   49.40    4.70
  -5   9   6   47.00    4.00
   5   9  -6   45.00    4.50
   5   9  -6   46.70    5.10
  -5   9  -6   53.89    5.10
  -5   9  -6   53.39    5.20
  -5  -9   6   56.29    4.80
   5  -9  -6   50.49    5.10
   5   9   6   48.30    4.10
   5   9   6   48.60    4.60
  -5   9  -6   57.09    4.80
  -6  -9  -6   37.50    4.70
   6  -9   6   34.80    4.10
   6   9  -6   47.70    4.70
  -6   9   6   32.30    3.80
   6   9  -6   35.40    4.70
  -6   9  -6   32.40    4.40
  -6   9  -6   46.40    4.90
   6   9   6   39.90    4.50
   6   9   6   35.20    4.00
   6  -9  -6   53.79    5.30
  -6   9  -6   39.30    4.90
  -6  -9   6   34.10    4.30
  -6   9  -6   41.60    4.20
   7   9  -6   51.69    5.30
   7   9  -6   52.29    6.10
   7  -9   6   59.59    5.50
  -7  -9  -6   44.80    5.50
  -7   9   6   40.40    4.80
   7  -9   6   45.60    5.20
  -7   9  -6   52.69    5.60
   7  -9  -6   52.49    5.60
  -7   9  -6   44.80    5.40
  -7   9  -6   53.09    5.20
   7   9   6   51.39    5.50
   7   9   6   48.30    5.10
  -7  -9   6   50.89    5.60
  -7   9  -6   53.19    5.50
   8  -9   6    1.60    2.00
   8  -9   6   10.40    2.80
  -8  -9  -6   10.20    2.90
   8   9  -6    7.40    3.50
  -8   9   6    5.80    2.10
   8   9  -6    8.30    2.30
  -8   9  -6    4.60    2.30
   8   9   6    5.90    1.80
   8  -9  -6    2.80    1.90
  -8   9  -6    7.20    2.60
  -8   9  -6    5.40    2.50
  -8   9  -6   11.70    3.70
   8   9   6    5.70    3.00
  -8  -9   6    6.20    2.50
  -9   9   6   39.70    5.20
  -9   9  -6   40.00    4.90
   0 -10   6  215.88   11.20
   0  10  -6  202.88   11.00
   0 -10  -6  214.18   11.30
   0 -10   6  208.38   10.90
   0  10  -6  201.88   10.80
   0 -10  -6  211.68   10.80
   0  10  -6  212.78   11.40
   0 -10  -6  225.78   11.00
   0 -10  -6  225.78   10.80
   1 -10   6   17.30    2.60
  -1 -10  -6   27.00    3.40
  -1 -10  -6   17.20    2.50
   1  10  -6   20.00    2.80
   1  10  -6   21.60    2.90
   1  10  -6   21.10    2.80
  -1 -10   6   24.00    3.00
  -1  10  -6   17.50    2.80
   1 -10  -6   18.90    2.50
  -1 -10   6   21.70    2.90
   1 -10  -6   23.30    3.10
  -1  10  -6   23.90    3.10
   1 -10  -6   23.50    2.90
  -1  10  -6   18.90    2.60
   1  10   6   19.70    1.40
   1 -10  -6   22.50    2.70
  -2 -10  -6  105.69    6.90
  -2  10   6   90.79    5.70
   2  10  -6   98.79    6.30
   2 -10   6   88.29    5.90
   2  10  -6   93.19    6.30
   2  10  -6  106.09    6.60
  -2  10  -6   97.59    6.20
  -2 -10   6   94.79    6.20
   2 -10  -6   97.19    6.40
  -2 -10   6   95.49    6.30
   2 -10  -6  107.09    6.10
   2  10   6   96.49    5.00
   2  10   6   94.49    5.90
  -2  10  -6   91.39    6.60
  -2  10  -6  103.59    6.60
   3  10  -6    6.40    1.90
   3 -10   6    6.50    1.80
   3  10  -6    7.40    2.10
  -3  10   6    7.80    1.80
  -3 -10  -6    6.90    2.20
   3 -10  -6    7.30    2.00
   3  10   6    7.40    1.50
  -3  10  -6    8.20    2.20
   3  10   6    6.00    1.60
  -3  10  -6    6.00    1.90
  -3 -10   6    4.20    1.70
  -3 -10   6    8.20    2.20
  -3  10  -6    8.40    2.10
   4 -10   6   30.50    3.70
  -4 -10  -6   37.90    4.40
   4  10  -6   32.80    3.90
  -4  10   6   39.30    3.90
   4  10  -6   39.30    4.40
  -4  10  -6   29.30    3.80
  -4  10  -6   39.90    4.30
   4 -10  -6   31.50    3.80
  -4 -10   6   34.80    4.30
   4  10   6   31.20    3.60
  -4  10  -6   31.10    4.00
   4  10   6   32.80    3.40
  -5 -10  -6    7.30    2.40
   5  10  -6    5.60    2.50
   5 -10   6    9.20    2.20
  -5  10   6   14.50    2.50
   5  10  -6    7.30    2.20
   5  10   6   11.20    2.30
  -5  10  -6    8.50    2.20
  -5  10  -6   12.70    2.80
   5 -10  -6    5.70    2.20
  -5 -10   6    9.10    2.60
  -5  10  -6   11.60    2.60
   5  10   6   10.40    2.30
   6  10  -6   38.60    4.50
   6 -10   6   38.40    4.40
   6  10  -6   42.00    5.30
  -6  10   6   43.30    4.60
  -6 -10  -6   42.50    5.20
  -6  10  -6   36.50    4.60
   6  10   6   41.00    4.60
  -6  10  -6   41.50    5.00
  -6  10  -6   40.10    5.00
   6  10   6   40.10    4.60
   6 -10  -6   46.40    5.30
  -6 -10   6   39.10    5.10
   7  10  -6   14.00    3.00
  -7 -10  -6   16.20    3.50
   7 -10   6    9.70    2.70
  -7  10   6   12.40    2.80
   7  10  -6   11.70    3.60
  -7  10  -6   15.40    3.30
   7 -10  -6   16.30    3.50
  -7  10  -6   18.80    3.60
  -7 -10   6    9.10    2.70
   7  10   6   21.30    3.40
   7  10   6   11.30    3.10
  -7  10  -6   17.90    3.80
  -8 -10  -6    6.30    2.70
   8  10  -6    3.20    2.20
   8 -10   6    6.70    2.70
   8  10  -6    6.40    3.90
  -8  10   6    1.20    1.90
  -8 -10   6    2.40    2.00
   8 -10  -6    4.40    2.10
  -8  10  -6    4.20    2.50
   8  10   6    5.10    2.40
   8  10   6    6.30    3.50
  -8  10  -6    6.60    2.80
  -8  10  -6    8.40    3.70
   0  11  -6   -0.30    1.00
   0 -11   6   -0.70    1.20
   0 -11  -6    0.00    1.30
   0 -11  -6    0.00    1.20
   0  11  -6   -1.10    1.00
   0  11  -6    0.90    1.20
   1  11  -6   74.89    5.30
   1  11  -6   74.29    5.60
  -1 -11  -6   70.99    5.60
   1  11  -6   66.89    5.00
   1 -11   6   66.69    5.20
  -1 -11   6   64.29    5.10
   1 -11  -6   65.69    4.90
  -1  11  -6   75.09    5.40
   1 -11  -6   70.09    5.20
   1  11   6   68.39    5.00
   1  11   6   65.89    3.50
  -1 -11   6   69.59    5.20
  -1  11  -6   71.89    5.00
  -1  11  -6   75.99    5.70
  -2  11   6    5.70    1.80
  -2 -11  -6    5.10    2.20
   2  11  -6    5.90    1.80
   2  11  -6    6.80    2.00
   2 -11   6    6.70    1.90
   2  11  -6    6.40    2.10
   2  11   6    7.30    1.80
  -2  11  -6    5.20    1.80
   2  11   6    6.30    1.30
  -2 -11   6    3.60    1.70
  -2  11  -6    2.30    1.50
   2 -11  -6    8.90    2.20
  -2  11  -6    3.90    1.90
  -2 -11   6    5.70    2.00
   3  11  -6   33.90    4.10
   3 -11   6   30.80    3.80
   3  11  -6   32.50    4.20
  -3  11   6   31.30    3.50
  -3 -11  -6   34.20    4.40
   3 -11  -6   33.10    4.10
   3  11   6   33.00    3.80
   3  11   6   31.10    3.10
  -3  11  -6   30.70    4.10
  -3 -11   6   30.00    3.80
  -3  11  -6   34.60    3.90
  -3  11  -6   35.30    4.00
  -3 -11   6   30.60    4.00
  -4 -11  -6   13.80    3.20
   4  11  -6   13.60    2.70
   4 -11   6    8.40    2.20
   4  11  -6   12.40    3.00
  -4  11   6   11.00    2.20
  -4  11  -6   15.80    2.90
  -4  11  -6   14.60    2.90
   4  11   6    8.00    2.00
  -4 -11   6   14.50    3.10
   4 -11  -6   19.60    3.40
   4  11   6   13.00    2.50
  -4  11  -6   13.60    3.10
   5  11  -6   50.79    5.20
   5  11  -6   61.69    6.10
  -5 -11  -6   38.20    5.10
  -5  11   6   50.49    4.80
   5 -11   6   43.30    4.70
   5 -11  -6   44.40    5.10
  -5  11  -6   39.30    4.90
   5  11   6   49.20    5.00
  -5  11  -6   43.20    5.10
   5  11   6   37.30    4.30
  -5  11  -6   41.40    5.00
  -5 -11   6   45.10    5.40
   6 -11   6    9.30    2.50
  -6  11   6   11.80    2.70
  -6 -11  -6   10.20    3.10
   6  11  -6    8.30    3.00
   6  11  -6   15.50    3.10
  -6  11  -6   15.80    3.40
  -6 -11   6   12.90    3.30
  -6  11  -6   17.00    3.60
   6  11   6   12.30    2.70
   6 -11  -6   12.00    2.90
  -6  11  -6   14.10    3.50
   6  11   6   10.80    2.90
   7  11  -6   39.50    4.90
   7  11  -6   30.00    5.30
  -7  11   6   30.90    4.30
  -7 -11  -6   40.90    5.30
   7 -11   6   44.90    5.20
   7  11   6   35.90    5.20
  -7  11  -6   37.40    5.10
   7 -11  -6   36.20    5.20
  -7  11  -6   34.70    5.40
  -7 -11   6   34.40    5.30
  -7  11  -6   39.70    5.40
   7  11   6   37.00    4.60
   0  12  -6   71.19    5.80
   0  12  -6   74.09    5.60
   0  12   6   67.39    3.30
   0 -12   6   68.69    5.50
   0 -12  -6   75.59    5.40
   0  12  -6   72.59    5.50
   1  12  -6    6.60    2.10
   1  12  -6    0.90    1.40
   1 -12   6    2.80    1.80
  -1 -12  -6    2.60    2.00
   1  12  -6    3.30    1.70
   1 -12  -6    4.40    2.00
  -1  12  -6    2.30    1.50
  -1  12  -6    6.30    2.00
  -1 -12   6    3.20    1.80
  -1  12  -6    3.80    1.80
   1 -12  -6    2.70    1.90
   1  12   6    3.00    0.90
   1  12   6    5.90    1.80
   2  12  -6   14.50    3.00
   2 -12   6   16.30    3.00
   2  12  -6   11.80    2.70
  -2 -12  -6   23.50    3.70
   2  12  -6   15.70    2.90
  -2 -12   6   18.40    3.20
   2 -12  -6   14.50    2.90
   2  12   6   17.20    2.10
   2  12   6   16.30    2.90
  -2  12  -6   18.10    2.90
  -2  12  -6   22.60    3.50
  -2  12  -6   18.40    3.40
  -2 -12   6   21.90    3.30
   3 -12   6    6.40    2.20
  -3 -12  -6    7.10    2.50
   3  12  -6    7.50    2.60
   3 -12  -6   12.30    2.70
  -3  12  -6    6.20    2.10
   3  12   6    9.60    2.40
  -3 -12   6    6.40    2.20
  -3 -12   6    3.50    1.80
  -3  12  -6    7.70    2.70
  -3  12  -6    5.50    2.40
   3  12   6    6.40    1.70
   4  12  -6    3.00    2.30
   4 -12   6    4.10    1.90
   4  12  -6    2.30    2.00
  -4 -12  -6    5.00    2.30
   4  12   6    5.00    1.60
   4  12   6   -0.30    1.40
  -4 -12   6    2.30    1.90
  -4  12  -6    1.10    1.60
  -4  12  -6    4.90    2.30
  -4  12  -6    2.20    2.00
   4 -12  -6    3.10    1.90
   5 -12   6   -0.40    1.70
  -5  12   6    3.40    2.10
   5  12  -6    2.20    2.50
  -5 -12  -6    3.00    2.40
   5  12  -6    1.10    2.00
  -5  12  -6    0.60    2.10
  -5  12  -6   -0.40    2.10
  -5 -12   6    6.40    2.60
  -5  12  -6    0.00    2.30
   5 -12  -6    2.20    2.00
   5  12   6    1.90    1.60
   5  12   6    3.60    1.80
   6  12  -6    0.90    2.20
   6  12  -6   -0.30    2.80
  -6  12   6    0.90    1.70
  -6 -12  -6   -2.40    2.20
   6 -12   6    2.10    2.30
  -6 -12   6   -0.50    2.40
   6  12   6   -0.60    1.70
   6  12   6    1.50    2.60
  -6  12  -6   -1.10    2.20
  -6  12  -6   -0.50    2.60
  -6  12  -6   -2.30    1.80
   6 -12  -6    1.60    2.30
   0 -13  -6    1.90    1.90
   0 -13   6   -4.60    1.20
   0  13  -6   -0.70    1.60
   0  13  -6   -1.10    1.70
   0  13   6   -1.20    0.80
   0  13  -6   -0.70    1.30
   1 -13   6    6.90    2.10
   1  13  -6    3.20    2.00
   1  13  -6    5.10    1.80
   1  13  -6    0.80    2.00
  -1 -13  -6    4.10    2.40
  -1 -13   6    4.50    2.10
  -1  13  -6    2.60    2.10
   1  13   6    3.80    1.10
  -1  13  -6    4.40    2.00
   1  13   6    4.40    1.90
  -1  13  -6    4.50    2.10
   2  13  -6    8.60    2.30
   2  13  -6    7.90    4.50
  -2 -13  -6    9.00    2.70
   2  13  -6   11.40    4.80
   2 -13   6    3.80    2.10
   2 -13  -6    7.10    2.50
  -2  13  -6    8.50    2.20
  -2  13  -6    3.70    2.30
  -2  13  -6    6.80    2.30
  -2 -13   6    1.20    1.60
   2  13   6    5.30    2.20
  -2 -13   6   10.60    2.90
   2  13   6    3.80    1.40
   3 -13   6   13.10    3.10
  -3 -13  -6   12.60    3.40
   3  13  -6    4.50    2.60
  -3  13  -6    6.10    2.50
   3 -13  -6   11.00    2.90
   3  13   6   12.90    2.20
  -3  13  -6    9.20    2.90
  -3 -13   6    7.90    2.30
   3  13   6    8.60    2.40
  -3 -13   6   11.00    3.10
  -3  13  -6   14.80    2.90
   4  13  -6   13.70    3.60
  -4 -13  -6   15.90    4.00
   4  13  -6   14.20    3.30
   4 -13   6   11.90    2.90
   4  13   6   14.20    3.00
  -4  13  -6    8.70    2.90
  -4  13  -6    9.20    2.70
   4 -13  -6   12.30    3.30
   4  13   6   15.30    2.60
  -4  13  -6   14.30    3.20
  -4 -13   6    9.50    3.00
   5  13  -6   -0.20    2.50
   5 -13   6    3.50    2.90
  -5 -13  -6    6.00    3.60
   5  13  -6    2.20    3.30
  -5 -13   6    8.00    3.60
   5 -13  -6    2.40    2.80
   5  13   6    1.50    1.90
  -5  13  -6    4.30    2.30
  -5  13  -6    0.80    2.00
   5  13   6    6.10    2.30
  -5  13  -6    2.60    3.30
   0  14  -6    7.20    2.20
   0  14  -6    7.40    2.70
   0  14  -6    7.90    2.50
   0 -14   6    5.80    2.70
   1  14  -6   15.70    3.60
   1  14  -6   20.90    3.80
   1  14  -6   17.80    3.20
   1 -14   6   12.10    3.30
   1  14   6   17.40    3.30
  -1  14  -6   17.00    3.00
  -1 -14   6   13.60    3.50
  -1  14  -6   17.50    3.50
  -1  14  -6   10.80    3.20
   1  14   6   18.50    2.10
   2 -14   6   32.20    4.80
  -2 -14  -6   40.50    5.70
   2  14  -6   40.30    4.80
  -2  14  -6   42.20    5.20
   2  14   6   35.30    3.30
  -2 -14   6   33.60    4.60
  -2  14  -6   48.90    5.80
   2  14   6   40.20    4.70
  -2  14  -6   40.00    4.70
  -3 -14  -6   16.70    4.20
   3  14  -6   15.00    4.10
   3 -14   6   10.00    3.20
  -3 -14   6   17.40    4.10
  -3  14  -6   16.20    3.70
   3 -14  -6   21.40    4.10
  -3  14  -6   12.80    3.30
   3  14   6   18.70    3.20
  -3  14  -6   16.10    3.10
  -3 -14   6   16.80    3.40
   3  14   6   20.70    2.80
   0   0   7   -0.50    0.40
   0   0  -7   -0.40    0.30
   0   0  -7   -0.30    0.30
   0   0   7    0.30    0.50
   1   0  -7   -0.10    0.30
  -1   0  -7   -0.10    0.40
   1   0  -7    0.40    0.40
   1   0   7    0.70    0.40
  -1   0   7   -0.60    0.50
   1   0   7    0.00    0.50
  -1   0  -7    0.30    0.40
  -1   0   7   -0.10    0.40
   1   0   7    0.80    0.50
   2   0   7  292.87   13.40
  -2   0  -7  274.77   13.10
   2   0  -7  293.87   13.30
  -2   0  -7  309.77   12.80
  -2   0   7  299.17   13.30
   2   0  -7  294.27   13.00
   2   0   7  299.47   13.00
  -2   0  -7  302.97   12.90
   2   0   7  286.37   13.20
   3   0   7    0.30    0.60
  -3   0  -7    0.10    0.40
   3   0   7    0.70    0.60
  -3   0   7    0.50    0.60
   3   0  -7    0.20    0.60
  -3   0  -7   -0.20    0.40
   3   0   7   -0.40    0.70
  -3   0  -7    0.20    0.50
  -3   0  -7    0.30    1.00
   3   0  -7    0.90    0.40
  -3   0   7    0.00    0.40
  -4   0  -7   58.19    3.00
  -4   0  -7   57.59    3.40
  -4   0  -7   59.09    3.00
   4   0   7   50.19    3.40
  -4   0  -7   54.19    3.50
  -4   0   7   54.39    3.30
  -4   0  -7   53.99    3.90
  -4   0   7   55.99    3.50
   4   0   7   64.89    4.10
   4   0  -7   55.19    3.00
   4   0  -7   48.50    3.50
   4   0  -7   53.59    4.00
   5   0   7    1.10    1.30
  -5   0  -7    0.50    0.70
   5   0  -7   -0.10    0.60
   5   0   7    0.10    0.80
  -5   0   7   -0.30    0.60
  -5   0  -7    0.40    0.60
  -5   0  -7   -0.10    0.60
  -5   0  -7    0.40    0.70
   5   0  -7    0.70    0.70
  -5   0   7    0.40    0.70
   6   0   7   47.30    3.60
   6   0   7   58.69    4.70
   6   0  -7   53.89    3.90
   6   0  -7   59.29    3.50
  -6   0   7   51.39    3.70
  -6   0  -7   55.69    4.00
  -6   0   7   51.49    3.60
  -7   0   7    1.90    1.30
  -7   0  -7    1.10    1.20
   7   0  -7   -1.30    1.00
   7   0   7    0.70    1.00
  -7   0   7    0.70    1.20
   7   0  -7   -0.20    0.80
  -8   0  -7  200.78   10.80
   8   0   7  211.28   11.30
   8   0  -7  204.38   10.80
  -8   0   7  215.78   11.10
  -9   0  -7    0.00    1.50
   9   0   7    0.10    1.60
   9   0  -7   -1.60    1.20
  -9   0   7    1.40    1.50
 -10   0  -7   18.00    3.30
  10   0   7   18.90    3.40
 -10   0   7   16.30    3.10
  11   0   7    1.60    2.40
 -11   0   7   -0.10    2.00
 -11   0  -7    1.40    2.40
   0  -1   7  145.39    6.70
   0  -1  -7  153.48    6.90
   0   1  -7  154.48    6.80
   0   1   7  150.98    7.10
   0   1   7  153.28    7.20
   0   1  -7  149.29    7.30
   0  -1   7  158.48    7.30
   0  -1  -7  145.79    7.00
   0  -1   7  148.49    7.10
   0   1  -7  147.19    7.00
   1   1  -7  522.05   22.00
  -1  -1  -7  508.65   22.30
   1   1  -7  529.25   22.60
  -1   1   7  462.75   21.10
   1  -1   7  482.75   21.10
   1   1  -7  508.35   22.40
   1  -1   7  508.15   21.00
  -1  -1  -7  487.75   22.00
  -1   1   7  505.35   21.30
   1  -1   7  485.85   21.40
   1  -1  -7  516.35   22.30
   1  -1  -7  508.55   22.30
  -1   1  -7  517.25   22.20
   1   1   7  454.95   21.20
  -1   1  -7  533.45   22.20
  -1  -1   7  495.55   21.40
  -1  -1   7  489.65   20.70
  -1  -1   7  495.35   21.30
   1   1   7  484.25   20.80
  -1   1  -7  516.75   22.20
  -1   1  -7  533.75   22.60
   1   1   7  503.95   21.30
   2   1  -7  409.66   18.30
   2   1  -7  372.66   18.10
   2  -1   7  402.16   17.60
   2  -1   7  411.36   18.00
   2  -1   7  410.56   17.60
  -2  -1  -7  406.86   18.10
   2   1  -7  410.76   17.60
   2   1  -7  439.06   17.80
  -2   1   7  410.46   17.80
  -2   1   7  394.26   17.80
  -2  -1  -7  436.86   18.30
  -2   1  -7  425.16   17.90
  -2   1  -7  416.36   17.80
  -2   1  -7  420.76   18.40
   2   1   7  381.06   17.80
  -2   1  -7  406.26   18.00
  -2  -1   7  405.96   17.90
   2   1   7  398.86   17.50
   2  -1  -7  380.76   18.10
   2  -1  -7  413.86   18.00
  -3  -1  -7  249.28   11.30
   3   1  -7  248.98   11.40
   3  -1   7  229.38   10.90
  -3  -1  -7  239.58   11.20
   3   1  -7  240.08   10.70
   3  -1   7  219.58   10.50
  -3   1   7  222.98   10.60
  -3   1   7  224.28   10.50
   3   1  -7  247.08   11.60
   3  -1   7  232.98   10.40
  -3   1  -7  249.38   11.60
   3  -1  -7  250.57   10.50
   3   1   7  237.88   11.00
  -3   1  -7  234.68   10.90
  -3   1  -7  254.17   10.90
   3   1   7  224.08   10.50
  -3   1  -7  236.28   11.10
  -3  -1   7  241.48   10.30
   3  -1  -7  229.98   11.30
  -4  -1  -7  162.98    7.20
  -4   1   7  154.08    7.60
  -4  -1  -7  161.08    7.10
   4  -1   7  153.28    8.10
  -4  -1  -7  157.48    7.80
   4  -1   7  154.88    7.30
   4   1  -7  169.48    8.30
  -4  -1  -7  150.98    7.80
   4   1  -7  150.58    7.80
   4   1  -7  151.38    7.30
  -4   1   7  151.68    7.50
   4  -1   7  148.79    7.60
  -4   1  -7  163.58    7.40
  -4   1  -7  151.98    7.80
   4   1   7  151.78    8.00
  -4  -1   7  155.48    7.30
   4  -1  -7  161.68    7.20
  -4   1  -7  162.18    7.50
  -4   1  -7  159.08    8.30
   4   1   7  149.69    7.50
  -4  -1   7  152.68    7.70
   4  -1  -7  136.79    7.70
   5  -1   7   16.70    2.10
  -5  -1  -7   22.20    2.30
   5  -1   7   23.60    1.90
   5  -1   7   24.30    2.90
   5  -1   7   20.20    1.80
   5   1  -7   24.30    3.30
  -5  -1  -7   16.90    2.10
  -5   1   7   21.10    2.20
   5   1  -7   23.30    2.50
   5   1  -7   21.30    2.00
  -5   1   7   21.00    2.20
   5  -1  -7   22.20    1.70
  -5  -1   7   20.10    2.00
  -5   1  -7   18.80    2.30
  -5  -1   7   21.00    2.40
   5  -1  -7   19.30    2.20
   5   1   7   20.80    2.30
   5   1   7   18.30    2.70
   6   1  -7   11.80    1.60
  -6  -1  -7   11.30    1.80
  -6  -1  -7   14.10    2.10
   6   1  -7   10.90    1.90
  -6   1   7   10.10    1.70
  -6   1   7   11.20    1.90
   6  -1   7    9.10    1.80
  -6  -1   7    9.60    1.60
  -6   1  -7   12.00    2.00
   6  -1  -7   10.60    1.90
  -6  -1   7   12.20    1.90
   6  -1  -7   10.40    1.50
   6   1   7    5.50    2.00
   6   1   7   11.30    1.90
   7   1  -7  186.18    9.30
  -7   1   7  180.58    9.40
   7  -1   7  164.38    9.50
  -7  -1  -7  178.38    9.40
   7   1  -7  174.58    8.80
  -7  -1   7  193.18    9.40
   7  -1  -7  166.08    9.30
  -7   1  -7  167.78    9.30
  -7  -1   7  190.28    9.60
   7   1   7  174.98    9.60
  -8   1   7   29.70    3.50
  -8  -1  -7   26.60    3.40
   8  -1   7   27.70    3.50
   8   1  -7   32.10    3.60
   8   1   7   29.50    3.60
  -8  -1   7   30.70    3.30
  -8   1  -7   32.70    3.80
   8  -1  -7   29.10    3.50
   9  -1   7   15.10    3.00
   9   1  -7   16.40    3.10
  -9   1   7   13.80    2.60
  -9  -1  -7   14.00    2.70
  -9   1  -7   14.20    2.80
   9  -1  -7   11.90    2.40
  -9  -1   7   15.90    2.70
   9   1   7   14.80    2.90
  10  -1   7   12.40    2.90
 -10   1   7   17.50    3.20
 -10  -1  -7   22.40    3.70
 -10  -1   7   17.20    3.30
 -10   1  -7   15.20    3.10
  10   1   7   19.40    3.40
  10  -1  -7   22.10    4.70
 -11  -1  -7    0.60    2.50
 -11   1   7    0.50    2.10
  11  -1   7   -0.60    2.10
 -11   1  -7    3.70    2.60
  11   1   7   -0.70    2.30
   0   2   7   -0.20    0.40
   0   2  -7    0.00    0.70
   0   2  -7    0.00    0.30
   0  -2   7   -0.20    0.40
   0  -2  -7   -0.10    0.40
   0  -2   7    0.20    0.40
   0   2  -7    0.30    0.50
   0   2   7   -0.20    0.40
   0  -2  -7    0.20    0.30
  -1  -2  -7  214.28    9.20
  -1   2   7  199.38    9.20
   1   2  -7  216.78    9.10
  -1  -2  -7  208.08    9.60
   1   2  -7  203.78    9.80
  -1  -2  -7  207.28    9.80
   1  -2   7  207.58    9.20
  -1   2   7  194.68    9.40
   1  -2   7  201.68    9.30
   1   2  -7  195.08    9.60
  -1   2  -7  198.78    9.80
   1   2   7  198.18    9.30
   1  -2  -7  206.88    9.60
  -1   2  -7  219.78    9.40
  -1   2  -7  213.08    9.50
   1   2   7  205.48    9.00
  -1  -2   7  212.48    9.50
   1  -2  -7  205.18    9.50
  -1  -2   7  204.18    9.10
  -1  -2   7  205.98    9.60
  -1   2  -7  210.58    9.60
   2  -2   7  392.66   17.10
   2  -2   7  400.46   16.90
  -2   2   7  390.96   17.20
   2   2  -7  350.56   16.70
   2   2  -7  375.06   17.00
  -2  -2  -7  390.56   16.90
   2  -2   7  397.36   17.40
  -2  -2  -7  388.26   16.70
  -2   2   7  380.56   17.00
  -2  -2   7  385.26   16.70
  -2  -2   7  353.66   17.20
  -2   2  -7  353.86   16.90
   2  -2  -7  379.26   16.80
   2   2   7  376.66   17.20
  -2  -2   7  387.66   16.60
  -2   2  -7  358.96   16.50
  -2   2  -7  407.66   16.70
   2   2   7  399.26   16.90
   2  -2  -7  384.16   16.70
  -2   2  -7  380.26   16.50
  -3   2   7  183.08    8.70
   3   2  -7  195.18    9.00
  -3  -2  -7  178.08    8.90
   3  -2   7  179.08    9.10
  -3  -2  -7  175.98    8.80
   3  -2   7  176.48    8.70
   3  -2   7  182.38    8.40
   3   2  -7  181.58    8.40
  -3   2  -7  184.38    8.70
   3  -2  -7  201.58    9.00
   3   2   7  182.78    8.70
   3  -2  -7  185.18    8.10
  -3   2  -7  187.98    9.30
   3  -2  -7  180.38    8.80
   3   2   7  178.08    9.00
  -3   2  -7  179.38    8.60
  -3  -2   7  197.98    8.30
  -3  -2   7  187.38    9.00
  -3   2  -7  181.18    8.60
  -4  -2  -7   64.79    3.80
   4   2  -7   57.79    3.80
   4   2  -7   64.39    4.30
  -4  -2  -7   59.99    3.90
   4   2  -7   65.99    3.50
  -4   2   7   64.19    3.90
  -4   2   7   72.39    3.90
   4  -2   7   57.79    3.80
   4  -2   7   74.29    3.50
   4  -2   7   69.79    4.50
  -4  -2   7   60.19    4.00
   4   2   7   59.09    4.20
  -4  -2   7   57.29    3.40
   4  -2  -7   58.09    3.20
  -4   2  -7   62.69    3.60
  -4   2  -7   67.59    3.60
   4  -2  -7   54.19    3.80
  -4   2  -7   67.39    4.30
   4   2   7   67.19    3.90
  -4   2  -7   62.29    3.80
  -5   2   7   10.90    1.60
   5   2  -7   11.20    2.10
  -5  -2  -7   10.60    1.70
   5   2  -7   10.20    1.60
   5  -2   7    8.10    1.50
  -5   2   7   10.30    1.60
   5  -2   7    9.00    1.40
  -5  -2  -7   12.20    1.90
   5   2  -7   10.70    1.40
   5  -2  -7    9.00    1.70
   5  -2  -7    9.40    1.20
   5   2   7    7.80    1.70
  -5   2  -7    8.00    1.60
  -5  -2   7    7.30    1.50
  -5  -2   7    9.10    1.30
   5   2   7   10.60    1.70
   6   2  -7  192.58   10.10
  -6  -2  -7  201.08   10.20
  -6  -2  -7  209.48   10.30
   6   2  -7  209.78    9.80
   6  -2   7  217.48   10.80
  -6   2   7  206.28   10.50
   6  -2   7  218.98   10.30
   6   2   7  211.68   10.70
  -6  -2   7  225.28   10.90
   6   2   7  211.38   11.30
  -6  -2   7  199.28   10.10
  -6   2  -7  195.88   10.20
   6  -2  -7  201.28   10.40
   6  -2  -7  208.18   10.40
   7   2  -7   19.50    2.60
  -7   2   7   16.80    2.50
  -7  -2  -7   15.80    2.40
  -7  -2  -7   21.50    2.70
   7  -2   7   17.90    2.60
   7   2  -7   15.50    2.10
   7  -2  -7   12.90    2.10
  -7   2  -7   14.70    2.20
  -7  -2   7   19.80    2.40
   7   2   7   16.70    2.40
  -7  -2   7   19.00    2.70
   7   2   7   19.60    3.40
  -8   2   7   28.00    3.40
   8   2  -7   30.70    3.30
  -8  -2  -7   29.80    3.60
   8   2  -7   29.60    3.50
   8  -2   7   26.60    3.40
   8  -2  -7   24.20    3.20
  -8  -2   7   22.80    3.10
   8   2   7   25.80    3.50
  -8   2  -7   33.10    3.70
  -8  -2   7   27.60    3.10
  -9  -2  -7   14.10    2.80
   9  -2   7   12.70    2.70
  -9   2   7   12.60    2.70
  -9   2  -7   12.70    2.70
   9   2   7   15.50    2.90
   9  -2  -7   11.20    2.50
 -10   2   7   -1.90    1.50
 -10  -2  -7    3.00    1.90
  10  -2   7    4.00    2.00
 -10   2  -7   -0.40    1.70
  10   2   7   -2.40    1.70
  10  -2  -7    0.20    1.80
 -11  -2  -7    0.00    2.40
 -11   2   7    3.30    2.70
  11  -2   7    3.90    2.80
  11   2   7    6.40    2.90
 -11   2  -7   -1.90    2.10
   0   3   7  602.64   24.10
   0   3   7  609.34   24.20
   0  -3   7  536.55   24.40
   0   3   7  518.95   24.60
   0  -3  -7  597.54   25.20
   0   3  -7  584.84   25.70
   0   3  -7  595.14   25.60
   0   3   7  558.54   24.00
   0   3  -7  593.54   24.90
   0  -3  -7  581.24   25.40
   0   3  -7  567.04   25.40
   0  -3   7  561.54   24.30
   1  -3   7  891.81   37.70
  -1  -3  -7  878.51   38.30
   1   3  -7  927.21   39.20
  -1   3   7  837.92   37.40
   1  -3   7  932.41   37.70
  -1  -3  -7  967.60   39.20
  -1   3   7  878.91   37.90
   1   3  -7  845.22   38.90
  -1  -3  -7  898.01   38.90
  -1   3  -7  954.30   39.20
   1  -3  -7  904.41   38.80
  -1  -3   7  904.91   37.60
  -1   3  -7  920.81   38.80
   1   3   7  929.81   37.50
  -1   3  -7  882.11   38.40
   1  -3  -7  883.51   38.80
  -1  -3   7  851.41   37.90
  -1   3  -7  943.81   39.00
   1   3   7  845.12   37.50
   2   3  -7  195.28    9.10
  -2  -3  -7  181.48    8.70
  -2   3   7  169.28    8.20
  -2   3   7  182.68    8.50
   2   3  -7  159.78    8.60
   2  -3   7  184.98    8.10
   2  -3   7  171.18    8.40
  -2  -3  -7  156.78    8.70
  -2  -3   7  168.08    8.50
  -2   3  -7  172.68    8.70
   2   3   7  175.98    8.20
   2  -3  -7  190.78    8.80
   2   3   7  176.48    8.40
   2  -3  -7  191.78    8.70
  -2   3  -7  199.88    8.70
  -2  -3   7  178.58    8.20
  -2   3  -7  196.08    8.50
  -2   3  -7  184.18    9.00
   3   3  -7  330.57   14.40
   3   3  -7  308.27   14.70
  -3  -3  -7  308.77   14.60
   3  -3   7  318.77   14.40
   3   3  -7  322.57   15.10
   3  -3   7  327.97   13.80
  -3  -3  -7  317.77   14.90
  -3   3   7  301.87   14.20
  -3  -3   7  339.77   13.70
  -3  -3   7  283.17   14.50
  -3   3  -7  338.97   15.20
  -3   3  -7  324.57   14.60
  -3   3  -7  329.07   14.50
   3  -3  -7  322.37   14.80
   3   3   7  313.47   14.50
  -3   3  -7  328.17   14.70
   3  -3  -7  340.07   14.00
   3   3   7  316.17   14.20
   3  -3  -7  302.17   14.60
  -4   3   7   66.19    4.00
  -4  -3  -7   59.99    4.30
   4   3  -7   74.49    4.00
  -4   3   7   69.29    3.90
   4   3  -7   69.19    4.30
  -4  -3  -7   71.19    4.20
   4  -3   7   65.69    4.10
   4   3  -7   77.79    4.80
  -4   3  -7   73.19    4.10
  -4  -3   7   63.39    4.20
   4   3   7   59.99    3.90
  -4   3  -7   72.19    4.70
  -4  -3   7   71.39    3.50
  -4   3  -7   69.79    4.20
   4  -3  -7   71.79    3.60
   4  -3  -7   64.79    4.30
  -4   3  -7   67.19    4.10
   4   3   7   58.59    4.20
  -5   3   7  114.19    5.80
   5   3  -7  107.59    5.80
  -5  -3  -7  103.69    6.00
   5  -3   7  101.49    5.80
   5   3  -7  106.89    6.70
   5  -3   7  105.09    6.10
  -5  -3  -7  119.99    6.50
  -5   3   7  110.79    6.00
   5   3  -7  111.19    6.10
   5   3   7  105.89    6.00
  -5  -3   7  100.19    5.40
  -5   3  -7  120.49    6.20
   5  -3  -7  105.19    6.30
   5  -3  -7  110.79    5.50
   5   3   7  118.29    6.60
  -5  -3   7  109.49    6.30
  -6  -3  -7   60.39    4.40
   6   3  -7   68.69    4.10
   6  -3   7   57.19    4.30
  -6   3   7   64.19    4.30
  -6  -3  -7   52.69    4.10
   6  -3   7   62.49    4.10
   6   3  -7   68.29    5.40
   6   3  -7   64.89    4.20
  -6  -3   7   61.09    4.40
  -6   3  -7   66.79    4.40
  -6  -3   7   65.29    3.90
   6   3   7   70.39    5.10
   6   3   7   63.39    4.40
   6  -3  -7   60.39    4.40
   7   3  -7   12.60    2.10
  -7  -3  -7   16.30    2.60
   7  -3   7   13.10    2.20
  -7   3   7   14.30    2.40
  -7  -3  -7   14.50    2.40
   7  -3   7   13.20    2.20
   7   3  -7   16.40    2.20
   7  -3  -7   14.00    2.40
   7   3   7   15.00    2.90
  -7  -3   7    9.90    2.10
  -7   3  -7    9.20    2.10
   7   3   7   12.80    2.30
  -8  -3  -7    6.70    2.00
   8   3  -7    1.90    1.40
  -8   3   7    4.20    1.70
   8  -3   7    2.80    1.70
   8  -3  -7    4.50    1.60
   8   3   7    4.50    1.50
  -8   3  -7    3.70    1.50
  -8  -3   7    3.90    1.70
   9  -3   7   40.60    4.80
  -9   3   7   49.99    5.00
  -9  -3  -7   41.40    4.60
   9   3   7   43.80    4.70
  -9   3  -7   41.20    4.70
   9  -3  -7   39.20    4.50
 -10   3   7    2.30    2.00
 -10  -3  -7   -0.50    1.90
  10  -3   7    6.00    2.40
  10  -3  -7    5.70    2.20
 -10   3  -7    1.40    1.60
  10   3   7    1.10    2.10
 -11  -3  -7   21.20    4.10
  11  -3   7   27.50    4.60
 -11   3   7   34.20    5.00
 -11   3  -7   30.60    4.50
  11   3   7   29.30    4.80
   0  -4   7   -0.20    0.50
   0  -4  -7    0.40    0.60
   0   4  -7    0.60    0.60
   0  -4   7    0.30    0.50
   0   4   7    0.20    0.40
   0   4  -7   -0.20    0.70
   0   4  -7   -0.40    0.60
   0   4   7    0.10    0.30
   0  -4  -7   -0.10    0.60
   0   4   7    0.50    0.30
   0  -4  -7   -0.40    0.40
  -1   4   7  142.09    7.10
  -1  -4  -7  137.39    7.00
  -1  -4  -7  139.49    7.30
  -1  -4  -7  142.79    6.50
   1   4  -7  141.39    7.30
  -1   4   7  143.59    6.40
   1   4  -7  135.69    7.10
  -1   4   7  142.19    6.40
   1  -4   7  141.19    6.80
   1  -4  -7  142.49    7.00
  -1   4  -7  142.79    7.30
   1   4   7  138.29    6.50
   1  -4  -7  136.59    6.90
  -1   4  -7  140.59    7.00
   1   4   7  140.49    6.60
   1  -4  -7  139.99    6.40
  -1  -4   7  136.59    7.10
  -1   4  -7  133.29    7.10
  -1  -4   7  139.29    6.90
   1   4   7  150.58    6.70
  -1   4  -7  159.48    6.60
   2   4  -7  242.18   11.70
  -2  -4  -7  269.47   11.70
  -2   4   7  250.17   11.50
   2  -4   7  243.78   11.10
   2   4  -7  245.58   11.90
  -2   4   7  248.28   11.10
  -2   4   7  262.37   11.20
   2  -4   7  240.28   11.50
  -2  -4  -7  255.27   11.90
  -2  -4   7  250.67   11.40
   2  -4  -7  223.18   11.50
  -2   4  -7  257.97   11.70
  -2   4  -7  249.68   11.20
   2   4   7  233.98   11.30
  -2   4  -7  243.88   11.80
   2   4   7  255.17   11.30
  -2  -4   7  248.88   11.80
  -2   4  -7  238.58   11.50
   2  -4  -7  265.87   10.90
   2  -4  -7  240.98   11.50
   3   4  -7  117.39    6.50
   3  -4   7  117.69    6.20
  -3  -4  -7  110.19    6.30
  -3   4   7  113.89    6.00
   3  -4   7  117.39    5.50
  -3  -4  -7  117.39    6.10
   3   4  -7  115.09    6.20
   3  -4  -7  125.19    5.50
   3   4   7  112.49    6.00
  -3   4  -7  101.29    5.70
  -3   4  -7  114.69    6.40
   3   4   7  114.99    6.20
  -3   4  -7  114.59    6.10
  -3  -4   7  125.79    5.60
  -3  -4   7  124.19    6.50
  -3  -4   7  113.19    6.00
   3  -4  -7  103.69    6.10
   3  -4  -7  119.59    6.10
  -3   4  -7  121.29    6.20
   4   4  -7   43.00    2.90
  -4  -4  -7   41.20    3.00
  -4  -4  -7   44.70    3.40
   4   4  -7   38.80    3.00
   4  -4   7   41.50    3.00
   4   4  -7   41.20    3.50
  -4   4   7   40.80    2.80
  -4   4   7   37.80    3.00
   4  -4  -7   36.00    3.10
  -4   4  -7   41.40    3.00
   4   4   7   36.80    2.80
  -4   4  -7   41.80    3.50
  -4  -4   7   36.70    3.10
   4  -4  -7   44.60    2.50
   4   4   7   39.70    3.20
  -4   4  -7   39.10    2.90
  -4   4  -7   40.40    3.10
  -5  -4  -7   41.40    3.20
  -5   4   7   40.50    3.10
   5   4  -7   43.50    3.30
   5   4  -7   44.30    3.10
   5  -4   7   42.90    3.30
  -5  -4  -7   38.20    3.40
   5  -4   7   37.80    3.10
   5   4  -7   45.20    4.40
   5   4   7   43.20    3.20
   5  -4  -7   34.60    3.20
  -5   4  -7   42.40    3.20
   5   4   7   42.10    3.60
  -5  -4   7   37.40    3.30
  -6   4   7  102.39    6.10
   6  -4   7   97.19    6.20
   6   4  -7  107.89    6.30
   6   4  -7  117.39    6.30
   6   4  -7  114.39    7.20
  -6  -4  -7  105.49    6.30
   6  -4   7   99.59    6.00
  -6  -4  -7  105.79    6.60
   6   4   7   97.99    6.10
  -6   4  -7  105.39    6.40
  -6  -4   7  107.09    6.40
   6  -4  -7  119.39    6.70
   6   4   7  111.29    6.80
  -7   4   7   48.80    4.30
   7   4  -7   57.49    4.20
   7   4  -7   63.19    4.30
  -7  -4  -7   57.69    4.30
   7  -4   7   53.49    4.40
  -7  -4  -7   53.19    4.40
   7  -4   7   60.69    4.30
   7   4   7   58.29    5.70
  -7   4  -7   54.69    4.30
   7   4   7   55.29    4.30
  -7  -4   7   63.39    4.70
   7  -4  -7   62.09    4.60
   8  -4   7   14.30    2.80
   8   4  -7   15.30    2.50
  -8   4   7   16.30    2.90
  -8  -4  -7   17.10    2.80
  -8  -4  -7   11.50    2.40
   8   4   7   15.80    2.60
  -8  -4   7    7.90    2.20
   8  -4  -7   19.70    3.00
  -8   4  -7   12.90    2.60
   8   4   7   12.30    3.20
  -9   4   7   28.30    3.90
   9   4  -7   29.00    3.60
   9  -4   7   25.80    3.70
  -9  -4  -7   26.90    3.70
   9  -4  -7   26.70    3.80
  -9  -4   7   27.40    4.00
  -9   4  -7   27.90    4.00
   9   4   7   26.60    3.70
 -10   4   7    1.20    2.10
 -10  -4  -7    1.50    1.90
  10  -4   7    2.60    1.90
  10  -4  -7   -0.70    1.50
 -10   4  -7    1.20    1.80
  10   4   7   -0.40    1.90
   0   5   7  155.58    6.70
   0   5  -7  152.28    7.80
   0   5   7  153.48    6.70
   0  -5   7  148.89    7.60
   0  -5  -7  164.08    8.10
   0  -5   7  157.28    7.60
   0   5  -7  158.88    8.00
   0   5  -7  147.99    7.90
   0  -5  -7  160.48    7.40
   0  -5  -7  160.68    7.60
   0  -5  -7  157.98    7.80
   1   5  -7  492.55   23.90
  -1  -5  -7  553.14   23.40
  -1   5   7  538.25   22.80
   1   5  -7  545.35   24.20
  -1   5   7  549.45   22.80
   1  -5   7  515.05   23.40
   1   5  -7  526.95   24.10
  -1  -5  -7  538.15   23.90
  -1   5   7  587.44   23.90
   1  -5   7  508.95   23.70
  -1  -5  -7  560.94   24.30
  -1   5  -7  586.74   23.30
  -1   5  -7  535.25   24.00
   1   5   7  553.74   23.00
  -1  -5   7  531.65   23.70
   1   5   7  520.25   23.00
   1  -5  -7  525.65   23.90
   1  -5  -7  571.54   23.40
   1   5   7  531.15   23.40
  -1   5  -7  553.94   24.20
  -1   5  -7  545.65   24.20
  -1  -5   7  555.64   23.90
   1  -5  -7  530.05   23.80
  -2   5   7   82.19    4.30
   2   5  -7   90.79    5.50
   2  -5   7   83.09    4.90
   2  -5   7   87.29    4.50
  -2  -5  -7   94.99    4.50
  -2  -5  -7   90.29    5.50
  -2  -5  -7   91.59    5.20
   2   5  -7   97.29    5.40
  -2   5   7   94.49    4.40
  -2   5   7   86.09    4.80
  -2   5  -7   93.59    5.40
  -2  -5   7   86.09    5.10
  -2   5  -7  104.29    4.90
   2  -5  -7   92.89    4.70
  -2   5  -7   98.39    5.50
   2   5   7   99.59    5.00
   2   5   7   81.89    4.50
  -2   5  -7   93.19    5.30
   2  -5  -7   94.09    5.20
   2  -5  -7  101.49    5.40
   2   5   7   84.79    4.60
  -2  -5   7   88.39    4.80
   3   5  -7  100.99    5.80
  -3  -5  -7  100.59    6.10
  -3  -5  -7  107.69    5.70
   3  -5   7   92.09    5.50
   3   5  -7  110.49    6.20
  -3   5   7  107.19    5.40
  -3   5  -7  102.89    5.70
   3  -5  -7  106.29    5.10
   3   5   7  100.99    5.40
  -3   5  -7   99.89    5.80
  -3  -5   7   95.99    5.70
  -3   5  -7   99.39    5.40
  -3  -5   7   96.59    5.40
   3   5   7   98.39    5.40
   3  -5  -7  102.59    5.70
   3  -5  -7   94.19    5.70
  -3   5  -7  115.69    6.10
   4  -5   7  302.37   14.30
  -4   5   7  299.97   14.30
   4   5  -7  327.17   14.90
   4   5  -7  292.67   14.20
  -4  -5  -7  311.47   14.70
   4   5  -7  310.27   14.10
  -4   5   7  299.77   14.30
   4   5   7  318.27   14.40
  -4  -5   7  289.67   14.50
   4   5   7  307.17   14.20
  -4   5  -7  299.27   14.00
  -4   5  -7  298.87   14.20
   4  -5  -7  316.77   13.70
   4  -5  -7  273.37   14.30
  -4   5  -7  304.07   14.70
  -4   5  -7  293.57   14.30
   5   5  -7   10.30    2.40
   5   5  -7   10.10    1.80
  -5   5   7    9.00    1.70
   5   5  -7    7.40    1.60
   5  -5   7    8.60    1.70
  -5  -5  -7   11.50    1.80
  -5  -5  -7    4.90    1.50
   5  -5   7    8.00    1.70
  -5   5  -7   10.50    1.80
  -5  -5   7    7.30    1.70
   5   5   7    7.70    1.70
   5  -5  -7   10.20    2.00
   5   5   7   11.10    2.20
  -6   5   7   48.00    3.80
   6   5  -7   50.59    5.00
   6  -5   7   44.40    3.70
  -6  -5  -7   47.30    4.00
   6  -5   7   47.10    3.70
   6   5  -7   47.10    3.60
  -6  -5  -7   44.70    3.60
   6   5  -7   50.59    3.80
   6  -5  -7   44.90    3.80
  -6   5  -7   49.60    3.80
  -6  -5   7   46.30    4.00
   6   5   7   47.40    3.80
   6   5   7   50.59    4.90
   7   5  -7   15.70    2.40
   7  -5   7   12.00    2.30
  -7  -5  -7   12.30    2.50
  -7  -5  -7   10.40    2.10
   7  -5   7   14.70    2.30
  -7   5   7   11.10    2.20
  -7  -5   7   14.00    2.60
   7   5   7   11.90    2.40
  -7   5  -7   18.20    2.60
   7   5   7   14.80    3.10
   7  -5  -7   11.10    2.40
   8  -5   7    4.60    1.70
  -8  -5  -7    2.70    1.60
   8  -5   7    0.30    1.40
  -8  -5  -7    3.30    1.80
  -8   5   7    1.50    1.50
   8   5  -7    4.60    1.70
   8   5   7    1.30    1.30
  -8   5  -7    7.70    2.00
  -8  -5   7    4.40    1.80
   8   5   7    1.90    2.30
   8  -5  -7    1.40    1.60
   9  -5   7    3.00    1.70
  -9  -5  -7    1.90    1.90
   9   5  -7    0.30    1.50
  -9   5   7    0.80    1.80
  -9  -5  -7    1.70    2.50
   9  -5  -7    2.80    1.70
  -9   5  -7    1.60    1.50
   9   5   7    3.20    1.80
  -9  -5   7    3.90    2.00
 -10   5   7    2.30    2.40
 -10  -5  -7    2.30    2.40
  10  -5   7    1.90    2.20
 -10   5  -7    2.50    2.10
  10   5   7    2.30    2.20
  10  -5  -7    0.20    1.40
   0  -6  -7    0.00    0.70
   0   6  -7   -0.70    0.70
   0   6  -7    0.30    0.70
   0  -6  -7    0.50    0.60
   0  -6  -7    0.90    0.70
   0  -6   7    0.10    0.60
   0   6  -7   -0.80    0.70
   0  -6   7    1.00    0.70
   0  -6  -7    0.70    0.60
  -1  -6  -7   55.79    3.20
   1   6  -7   61.09    4.00
  -1  -6  -7   54.99    3.60
   1   6  -7   54.59    3.80
  -1  -6  -7   52.89    3.80
   1  -6   7   59.79    3.50
   1   6  -7   57.29    3.80
   1  -6  -7   56.39    3.60
   1  -6  -7   60.39    3.70
  -1   6  -7   53.59    3.80
  -1   6  -7   59.89    3.70
   1   6   7   53.19    3.30
  -1   6  -7   56.39    3.70
  -1  -6   7   52.69    3.50
   1   6   7   55.39    2.80
   1  -6  -7   54.19    3.20
   1   6   7   52.79    2.80
  -1  -6   7   55.39    3.70
   1  -6  -7   47.90    3.50
  -1   6  -7   57.99    3.80
  -2   6   7   23.20    1.60
   2  -6   7   29.70    2.00
  -2  -6  -7   28.80    2.40
   2   6  -7   24.00    2.70
  -2  -6  -7   25.50    2.90
  -2   6   7   22.90    2.20
   2  -6   7   22.70    2.50
   2   6  -7   27.60    3.00
  -2   6   7   22.20    1.60
  -2  -6   7   25.30    2.70
   2  -6  -7   27.50    2.40
  -2   6  -7   25.40    2.70
   2  -6  -7   20.70    2.30
   2   6   7   25.50    1.90
  -2   6  -7   26.90    2.90
  -2   6  -7   22.30    2.60
  -2  -6   7   23.80    2.50
   2   6   7   24.10    2.30
   2  -6  -7   25.80    1.90
  -2   6  -7   24.20    1.90
   3   6  -7   12.70    2.20
  -3  -6  -7   14.10    2.00
  -3  -6  -7   12.30    2.20
  -3   6   7   13.90    1.80
   3  -6   7   12.90    2.00
   3   6  -7   12.50    2.00
  -3   6  -7   10.80    2.10
   3  -6  -7    8.30    1.70
  -3  -6   7   15.50    2.20
   3  -6  -7   14.00    1.60
  -3   6  -7   10.30    1.50
  -3  -6   7    9.70    1.60
   3  -6  -7   12.70    1.80
  -3   6  -7   12.10    1.90
   3   6   7    9.40    1.50
  -3   6  -7   13.70    2.10
   3   6   7   11.90    1.70
  -4  -6  -7   51.39    3.70
   4   6  -7   50.59    3.80
   4   6  -7   49.99    3.60
  -4  -6  -7   52.09    4.10
  -4   6   7   49.20    3.50
   4  -6   7   50.59    3.70
   4   6  -7   47.60    4.00
  -4  -6   7   41.10    3.60
   4   6   7   45.30    3.50
  -4   6  -7   47.00    3.50
  -4   6  -7   49.90    4.10
   4   6   7   49.50    3.50
  -4   6  -7   55.99    4.00
   4  -6  -7   53.49    4.00
  -4   6  -7   52.29    3.90
  -5  -6  -7  186.18   10.20
  -5   6   7  161.18    8.90
   5   6  -7  182.58    9.60
   5   6  -7  186.68   10.40
  -5  -6  -7  188.98    9.60
   5   6  -7  195.98    9.70
   5  -6   7  173.68    9.10
   5  -6   7  173.98    9.20
  -5   6  -7  193.68   10.30
  -5   6  -7  189.98    9.60
  -5   6  -7  196.28   10.10
   5   6   7  173.98    8.90
  -5  -6   7  161.08    9.30
  -5   6  -7  179.18    9.80
   5   6   7  172.68    9.20
   5  -6  -7  180.48    9.90
  -6  -6  -7   18.80    2.90
   6   6  -7   12.00    2.20
  -6   6   7   17.40    2.40
   6  -6   7   20.60    2.90
  -6  -6  -7   17.40    2.50
   6   6  -7   19.20    2.60
   6  -6   7   16.80    2.60
   6   6  -7   23.00    3.40
   6   6   7   18.40    3.00
  -6   6  -7   17.20    2.40
   6   6   7   18.70    2.60
  -6  -6   7   15.40    2.70
   6  -6  -7   17.10    2.70
  -7   6   7   15.70    2.60
   7   6  -7   26.70    4.20
   7   6  -7   22.70    2.90
  -7  -6  -7   15.20    2.80
  -7  -6  -7   24.10    3.00
   7  -6   7   16.90    2.70
   7  -6   7   23.40    3.10
   7  -6  -7   24.00    3.20
  -7   6  -7   21.90    2.90
   7   6   7   14.90    3.00
   7   6   7   18.50    2.80
  -7  -6   7   19.10    3.20
  -8  -6  -7   13.80    2.60
  -8  -6  -7   16.70    3.10
   8  -6   7   16.10    2.80
   8  -6   7   20.30    3.30
   8   6  -7   20.70    3.00
  -8   6   7   18.40    3.20
   8  -6  -7   15.00    3.00
   8   6   7   19.10    3.80
   8   6   7   12.80    2.60
  -8  -6   7   21.60    3.50
  -8   6  -7   20.20    3.00
   9   6  -7   22.80    3.50
   9  -6   7   33.50    4.30
  -9   6   7   24.80    3.80
  -9  -6  -7   32.50    4.10
  -9  -6  -7   27.30    4.20
   9   6   7   33.00    4.30
   9   6   7   35.50    5.60
  -9  -6   7   35.20    4.50
   9  -6  -7   23.50    3.90
  -9   6  -7   24.60    3.60
 -10   6   7    4.70    2.70
  10  -6   7    3.60    2.30
  10   6  -7    9.90    3.90
  10   6   7    4.30    2.80
  10  -6  -7    3.20    1.80
 -10   6  -7    5.30    2.40
 -10  -6   7    5.60    2.60
   0  -7  -7  277.07   12.60
   0   7  -7  262.77   13.00
   0  -7  -7  274.07   12.90
   0  -7  -7  261.97   13.20
   0  -7   7  247.58   12.30
   0   7  -7  264.37   13.00
   0   7  -7  276.17   13.30
   0  -7  -7  295.87   12.80
   0  -7   7  263.07   12.20
  -1  -7  -7   33.00    3.00
   1   7  -7   37.50    3.10
   1  -7   7   33.00    2.50
   1   7  -7   42.30    3.10
   1   7  -7   33.30    3.00
   1  -7   7   33.60    2.70
  -1  -7  -7   34.50    2.50
  -1  -7  -7   37.90    2.80
  -1   7  -7   35.80    3.00
   1  -7  -7   41.80    3.10
   1  -7  -7   36.80    2.60
  -1  -7   7   34.80    2.90
  -1  -7   7   36.60    2.90
  -1   7  -7   30.00    3.10
   1   7   7   36.70    2.60
   1   7   7   31.40    1.90
   1   7   7   32.90    1.90
  -1   7  -7   28.00    3.20
   1  -7  -7   33.20    2.70
   1  -7  -7   35.00    2.80
  -2   7   7  266.67   11.80
   2   7  -7  286.77   13.40
  -2   7   7  281.47   11.90
   2  -7   7  250.67   12.90
  -2  -7  -7  250.77   13.40
  -2  -7  -7  271.67   12.90
   2   7  -7  275.17   13.40
  -2   7   7  287.57   12.90
  -2   7  -7  265.57   13.30
   2  -7  -7  306.87   13.30
   2   7   7  269.17   12.80
  -2  -7   7  269.27   13.00
  -2  -7   7  276.07   13.20
  -2   7  -7  278.77   13.30
  -2   7  -7  241.48   13.00
   2  -7  -7  278.67   12.60
   2  -7  -7  284.37   13.10
   2   7   7  266.07   12.20
   3  -7   7    6.00    1.40
  -3  -7  -7    5.80    1.60
   3   7  -7    7.90    1.90
   3   7  -7    5.80    1.50
  -3   7   7    5.60    1.40
  -3  -7  -7    8.20    1.60
  -3   7  -7    8.30    1.70
   3   7   7    5.60    1.30
  -3  -7   7    8.50    1.60
   3  -7  -7    6.90    1.50
  -3   7  -7    7.30    1.80
   3   7   7    8.60    1.60
   3  -7  -7    6.30    1.30
  -3  -7   7    4.60    1.50
   3  -7  -7    7.40    1.70
  -3   7  -7    6.00    1.30
  -3   7  -7    8.70    1.80
  -4  -7  -7  127.39    6.90
   4   7  -7  124.39    7.00
   4  -7   7  118.49    6.60
   4   7  -7  127.89    7.10
  -4  -7  -7  116.69    7.40
  -4   7   7  112.29    6.40
   4   7  -7  128.89    7.50
  -4  -7   7  101.49    6.70
  -4   7  -7  117.19    7.20
  -4   7  -7  117.99    7.40
  -4   7  -7  122.59    7.10
   4   7   7  106.19    6.20
  -4   7  -7  131.09    6.80
   4   7   7  108.49    6.20
   4  -7  -7  119.19    7.20
   5   7  -7   22.50    2.80
  -5  -7  -7   21.40    2.70
   5  -7   7   19.20    2.60
   5   7  -7   20.20    2.70
  -5   7   7   18.90    2.50
   5   7  -7   22.90    3.40
  -5  -7  -7   22.60    3.20
  -5   7  -7   20.30    2.50
   5   7   7   18.30    2.80
   5   7   7   19.80    2.60
  -5   7  -7   19.20    2.90
  -5   7  -7   17.00    2.90
  -5   7  -7   25.00    3.20
   5  -7  -7   18.50    2.80
  -5  -7   7   16.70    2.70
  -6  -7  -7   13.00    2.20
   6   7  -7   14.80    2.40
  -6   7   7   16.00    2.50
   6  -7   7   12.60    2.30
   6   7  -7   16.80    3.30
   6  -7   7   11.80    2.20
  -6  -7  -7   12.20    2.40
  -6   7  -7   15.00    2.40
   6   7   7   15.80    2.80
  -6   7  -7   13.00    2.50
  -6  -7   7   11.60    2.40
  -6   7  -7   16.00    3.00
   6   7   7   10.80    2.10
   6  -7  -7   15.10    2.70
  -6   7  -7   12.70    2.30
   7  -7   7   20.50    3.10
  -7  -7  -7   16.70    2.80
   7   7  -7   23.40    3.00
   7   7  -7   19.90    3.80
  -7  -7  -7   20.50    3.30
   7  -7   7   21.50    3.10
  -7   7   7   21.30    3.20
   7   7   7   20.80    3.50
   7   7   7   21.50    3.10
  -7   7  -7   21.30    3.00
  -7  -7   7   17.50    3.30
   7  -7  -7   18.80    3.10
  -8  -7  -7    2.20    1.90
   8   7  -7    1.10    1.50
   8  -7   7    2.30    1.80
   8  -7   7    0.10    1.60
  -8   7   7    2.50    1.70
  -8  -7   7    4.70    2.40
   8   7   7    6.50    2.70
  -8   7  -7    1.80    1.80
   8   7   7    4.80    2.00
   8  -7  -7    5.60    2.10
   9  -7   7    2.10    3.70
  -9  -7  -7    2.00    2.20
   9  -7   7    4.00    2.20
   9   7  -7    2.60    1.90
  -9   7   7    0.20    1.50
   9  -7  -7    4.40    1.80
   9   7   7    1.90    1.80
  -9   7  -7    2.70    2.00
   9   7   7    0.40    2.50
  -9  -7   7    3.40    2.10
   0  -8   7    0.90    1.00
   0   8  -7   -0.10    0.90
   0  -8  -7   -0.40    0.70
   0   8  -7   -0.30    0.90
   0  -8  -7    0.60    0.90
   0  -8  -7    0.00    1.00
   0  -8  -7    0.90    0.80
   0   8  -7   -0.10    0.90
   0  -8   7   -0.40    0.70
  -1  -8  -7   22.90    2.50
  -1  -8  -7   19.30    3.20
   1  -8   7   20.80    2.30
  -1  -8  -7   14.50    2.30
   1   8  -7   17.30    2.60
   1   8  -7   19.80    2.60
   1   8  -7   16.80    2.40
   1  -8   7   16.80    2.30
   1  -8  -7   18.60    2.20
  -1   8  -7   12.70    2.20
  -1   8  -7   15.00    2.50
   1   8   7   15.00    1.20
  -1  -8   7   19.40    2.50
   1  -8  -7   13.10    2.00
  -1  -8   7   15.40    2.20
   1  -8  -7   18.80    2.10
   1   8   7   18.50    2.20
   1   8   7   16.60    1.40
  -1   8  -7   18.80    2.50
   1  -8  -7   20.20    2.60
  -2  -8  -7    4.50    1.40
   2   8  -7    4.80    1.40
   2  -8   7    4.90    1.30
  -2  -8  -7    6.30    1.70
  -2   8   7    6.60    0.80
  -2   8   7    5.50    1.40
   2   8  -7    5.50    1.70
   2  -8  -7    9.00    1.70
   2  -8  -7    7.00    1.40
  -2   8  -7    8.70    1.90
  -2  -8   7    7.10    1.50
  -2   8  -7    5.10    1.60
   2   8   7    5.80    1.00
   2   8   7    6.60    1.40
  -2   8  -7    6.90    1.60
   2  -8  -7    6.50    1.60
  -2  -8   7    8.30    1.90
   3   8  -7   35.80    3.70
  -3   8   7   32.40    3.20
  -3  -8  -7   31.10    3.70
  -3  -8  -7   37.00    3.10
   3   8  -7   27.80    3.50
   3  -8   7   31.90    3.50
  -3   8  -7   35.40    3.70
  -3   8  -7   24.20    3.20
  -3  -8   7   33.60    3.60
   3   8   7   32.30    2.60
  -3   8  -7   35.90    3.70
  -3  -8   7   31.80    3.30
   3   8   7   29.40    3.10
   3  -8  -7   33.40    3.50
   4  -8   7   20.20    2.70
   4   8  -7   25.60    3.10
   4   8  -7   20.20    3.10
   4   8  -7   21.10    2.70
  -4  -8  -7   30.40    3.10
  -4  -8  -7   22.60    3.40
  -4   8   7   24.60    2.90
   4  -8  -7   18.40    2.80
   4   8   7   22.40    2.80
  -4  -8   7   15.20    2.70
   4   8   7   17.10    2.40
  -4   8  -7   20.40    3.00
  -4   8  -7   22.30    3.10
  -4   8  -7   23.90    3.30
   5   8  -7    0.90    1.20
  -5  -8  -7    0.70    1.20
  -5   8   7   -0.20    0.90
   5   8  -7   -0.40    1.60
   5  -8   7    0.60    1.20
  -5  -8  -7    2.20    1.50
   5   8  -7    0.60    1.40
  -5   8  -7    2.30    1.20
   5   8   7    1.10    1.10
  -5  -8   7   -0.20    1.30
   5  -8  -7    1.60    1.30
  -5   8  -7    2.70    1.90
   5   8   7    0.80    1.30
  -5   8  -7    2.10    1.50
  -5   8  -7    1.50    1.30
   6   8  -7   18.40    2.90
   6  -8   7   15.20    2.70
  -6  -8  -7   26.60    3.80
  -6   8   7   14.00    2.40
   6   8  -7   23.40    3.80
  -6   8  -7   24.00    3.50
   6   8   7   18.30    2.70
  -6   8  -7   24.10    3.00
   6   8   7   20.00    3.30
  -6   8  -7   14.00    2.80
   6  -8  -7   17.70    3.00
  -6  -8   7   16.80    3.10
  -6   8  -7   18.10    3.40
   7   8  -7   10.90    3.10
   7  -8   7    0.80    1.30
  -7  -8  -7    8.10    2.30
  -7   8   7    7.10    2.10
   7   8  -7    7.40    2.10
  -7   8  -7    8.70    2.30
  -7   8  -7    5.90    2.80
   7   8   7    7.60    2.50
  -7   8  -7    5.70    2.30
   7   8   7    6.70    2.00
  -7  -8   7    5.10    2.30
   7  -8  -7    7.70    2.00
  -7   8  -7    8.00    2.40
   8   8  -7    3.10    1.80
  -8  -8  -7    3.60    2.20
  -8   8   7    7.40    2.30
   8  -8   7    7.40    2.30
  -8   8  -7    3.40    2.80
   8  -8  -7    8.10    2.30
  -8   8  -7    9.60    2.50
  -8  -8   7   10.90    2.90
   8   8   7    3.70    2.40
   8   8   7    4.70    1.80
  -8   8  -7    6.20    2.30
  -8   8  -7    8.30    2.50
   9   8  -7   16.90    3.20
  -9   8   7   14.30    2.80
   9  -8   7   14.40    3.30
  -9  -8  -7   12.50    3.30
   9  -8  -7   12.20    3.00
  -9   8  -7   16.40    3.60
   9   8   7   11.50    3.70
  -9   8  -7   12.50    4.20
  -9  -8   7   18.10    3.60
   9   8   7   13.40    3.00
  -9   8  -7   11.60    3.20
  -9   8  -7   17.30    3.20
   0   9  -7   87.99    5.90
   0  -9  -7   91.89    5.50
   0  -9  -7   94.29    5.50
   0   9  -7   81.79    5.60
   0  -9  -7  100.69    6.10
   0  -9  -7   96.39    5.50
   0  -9   7   94.29    5.60
   0  -9   7   88.19    5.70
   0   9  -7   83.19    5.60
   1   9  -7   94.89    6.00
   1   9  -7  100.19    6.00
   1   9  -7   87.19    5.80
   1  -9   7   92.89    5.90
  -1  -9  -7   80.79    5.90
  -1  -9  -7  103.59    5.70
  -1  -9   7  109.09    6.20
   1   9   7   96.79    5.70
  -1  -9   7   93.29    5.90
   1  -9  -7   92.99    5.70
   1  -9  -7   97.39    5.50
   1   9   7   92.89    4.50
  -1   9  -7   80.09    5.70
  -1   9  -7   76.49    5.80
   1  -9  -7  104.29    6.10
   1  -9  -7   97.89    5.70
  -1   9  -7   95.29    5.80
  -2  -9  -7  153.38    9.10
  -2  -9  -7  161.58    8.30
   2   9  -7  154.28    8.80
   2   9  -7  166.68    8.70
   2  -9   7  138.29    8.10
   2   9  -7  169.98    9.00
  -2   9  -7  147.09    8.70
  -2  -9   7  150.48    8.20
   2   9   7  146.79    7.10
   2  -9  -7  166.28    8.30
  -2   9  -7  142.59    8.90
   2  -9  -7  147.79    8.30
  -2   9  -7  169.08    8.90
   2  -9  -7  157.08    8.60
   2   9   7  155.78    8.00
  -2  -9   7  141.09    8.30
  -3  -9  -7   31.60    3.30
  -3   9   7   22.90    2.80
   3   9  -7   29.20    3.70
  -3  -9  -7   26.30    3.60
   3   9  -7   24.50    3.20
   3  -9   7   29.50    3.40
   3  -9  -7   26.80    3.30
   3   9   7   25.60    2.60
  -3   9  -7   23.80    3.20
  -3   9  -7   31.30    3.60
   3   9   7   25.80    2.90
  -3  -9   7   24.90    3.10
  -3   9  -7   28.10    3.40
  -3  -9   7   24.90    3.40
  -4  -9  -7   26.10    3.90
   4   9  -7   31.80    3.60
   4   9  -7   31.90    3.70
   4   9  -7   33.10    4.10
   4  -9   7   29.20    3.50
  -4   9   7   27.00    3.20
  -4   9  -7   30.30    3.70
  -4   9  -7   28.80    3.70
   4   9   7   33.40    3.50
  -4   9  -7   33.10    3.80
   4  -9  -7   34.60    4.10
  -4  -9   7   23.80    3.50
   4   9   7   28.50    3.10
   5  -9   7    8.60    2.20
  -5   9   7    4.90    1.70
   5   9  -7    4.30    1.60
   5   9  -7    5.00    2.10
  -5  -9  -7    2.80    1.70
   5   9   7    3.60    1.70
   5   9   7    5.00    1.70
   5  -9  -7    5.60    1.90
  -5  -9   7    2.40    1.60
  -5   9  -7    7.30    2.30
  -5   9  -7    3.40    1.80
  -5   9  -7    3.90    1.70
  -6   9   7    2.90    1.70
  -6  -9  -7   11.00    2.70
   6  -9   7    8.40    2.30
   6   9  -7    9.30    2.80
   6   9  -7    9.40    2.30
   6  -9  -7    6.20    2.10
  -6   9  -7    7.50    2.50
  -6   9  -7    7.90    2.70
  -6   9  -7    4.00    2.20
  -6  -9   7    6.20    2.30
   6   9   7    8.20    2.00
   6   9   7    5.50    2.10
  -7  -9  -7    6.00    2.30
   7   9  -7    9.50    2.30
  -7   9   7    9.50    2.50
   7  -9   7   11.90    2.70
   7   9  -7   10.00    3.20
   7  -9  -7    4.60    2.10
  -7   9  -7    9.60    2.70
  -7   9  -7    8.50    2.50
   7   9   7    6.80    2.10
  -7  -9   7    7.20    2.30
   7   9   7    7.50    2.70
  -7   9  -7   12.70    3.00
  -7   9  -7    7.50    2.90
   8  -9   7   -0.40    1.70
   8   9  -7   -1.40    3.20
  -8   9   7   -0.30    1.40
  -8  -9  -7   -0.30    1.60
   8   9  -7    1.60    1.70
   8   9   7   -1.70    1.40
   8   9   7    3.70    2.80
   8  -9  -7   -0.70    1.50
  -8   9  -7    0.20    1.80
  -8   9  -7   -1.10    1.70
  -8   9  -7   -0.10    1.90
  -8  -9   7    0.20    1.60
  -8   9  -7    3.10    3.00
   0 -10  -7   -1.00    1.90
   0 -10   7    0.70    1.40
   0 -10  -7   -0.50    0.90
   0 -10  -7    1.90    1.30
   0  10  -7   -0.80    0.90
   0  10  -7    0.20    1.20
   0 -10   7    1.90    1.20
   0  10  -7    1.20    1.30
   0 -10  -7    0.20    1.00
   1  10  -7   18.70    3.10
  -1 -10  -7   18.30    2.60
  -1 -10  -7   22.50    3.30
   1  10  -7   22.20    3.10
   1  10  -7   21.50    2.90
   1 -10   7   15.50    2.50
   1 -10  -7   24.20    3.10
  -1  10  -7   22.60    3.30
   1 -10  -7   21.30    3.10
  -1 -10   7   23.10    3.10
   1 -10  -7   22.20    2.70
  -1 -10   7   16.80    2.70
   1  10   7   19.20    2.50
   1 -10  -7   23.30    2.80
  -1  10  -7   22.40    3.00
   1  10   7   19.40    1.40
  -1  10  -7   16.20    2.70
   2 -10   7    7.10    1.90
   2  10  -7   20.90    2.80
   2  10  -7    9.80    2.30
  -2 -10  -7    8.90    2.30
   2  10  -7    9.10    2.10
  -2  10  -7    9.10    2.10
   2  10   7   12.80    2.10
   2 -10  -7   10.80    2.30
   2 -10  -7    9.70    1.90
  -2 -10   7    8.30    2.00
  -2  10  -7   11.70    2.40
   2  10   7    9.40    1.40
  -2  10  -7    8.20    2.10
  -2 -10   7    8.80    2.20
  -3  10   7   11.20    2.10
   3  10  -7   12.30    2.40
   3  10  -7   10.50    2.50
   3 -10   7   11.40    2.40
  -3 -10  -7   10.70    2.50
   3  10   7    9.10    2.00
  -3 -10   7    8.10    2.10
  -3  10  -7    9.30    2.20
  -3  10  -7    8.60    2.20
  -3 -10   7   10.20    2.10
   3  10   7   11.90    1.80
   3 -10  -7    5.30    1.90
  -3  10  -7   12.00    2.50
   4  10  -7    5.60    2.00
  -4  10   7    9.20    2.10
  -4 -10  -7    9.40    2.40
   4  10  -7    7.80    2.40
   4 -10   7    8.10    2.10
   4  10  -7    7.00    2.20
  -4  10  -7    8.30    2.20
  -4  10  -7    8.20    2.30
   4  10   7    7.80    2.00
  -4 -10   7    7.30    2.30
  -4  10  -7    7.20    2.20
   4 -10  -7    5.30    2.00
   4  10   7    6.20    1.60
   5 -10   7   18.80    3.20
   5  10  -7   21.10    3.30
  -5 -10  -7   23.70    3.90
  -5  10   7   23.60    3.30
   5  10  -7   19.40    3.50
  -5  10  -7   19.10    3.50
   5  10   7   21.60    3.00
   5  10   7   28.30    3.60
  -5  10  -7   27.40    3.80
  -5 -10   7   23.30    3.80
   5 -10  -7   19.30    3.30
  -5  10  -7   20.50    3.30
  -6 -10  -7    0.80    1.60
  -6  10   7    4.20    1.80
   6  10  -7    4.00    2.60
   6 -10   7    3.80    1.90
   6  10  -7    2.40    1.80
   6  10   7    2.30    2.10
  -6 -10   7    7.10    2.50
  -6  10  -7    3.90    2.00
  -6  10  -7    2.20    1.80
  -6  10  -7    6.10    2.60
   6 -10  -7   -0.10    1.50
   6  10   7    4.70    2.00
   7  10  -7    3.70    3.00
  -7 -10  -7    5.90    2.30
   7 -10   7    7.20    2.40
  -7  10   7    9.00    2.40
   7  10  -7   12.00    2.90
   7  10   7    8.20    2.70
  -7 -10   7    8.20    2.60
   7 -10  -7   11.80    3.00
  -7  10  -7   11.50    3.30
  -7  10  -7    5.20    2.50
   7  10   7   14.10    3.30
  -7  10  -7    8.80    2.60
  -8 -10  -7    0.20    1.90
   8 -10   7    4.10    2.50
  -8  10   7   -0.50    1.60
   8  10  -7   -1.40    3.50
   8  10  -7    0.90    1.90
   8 -10  -7    0.80    1.50
  -8  10  -7   -0.30    3.20
  -8  10  -7    5.40    2.50
  -8 -10   7    1.90    2.10
   8  10   7   -1.60    3.00
  -8  10  -7   -0.80    2.40
   8  10   7    1.00    1.60
   0 -11   7   50.89    4.40
   0  11  -7   61.59    4.70
   0  11  -7   52.39    5.30
   0 -11  -7   54.59    4.30
   0  11  -7   52.89    4.50
   0 -11  -7   61.89    5.00
   1 -11   7  159.48    9.10
   1  11  -7  154.88    9.10
   1  11  -7  161.38    9.50
  -1 -11  -7  169.08    9.60
   1  11  -7  159.98    9.30
   1  11   7  151.88    7.20
  -1  11  -7  154.58    9.50
  -1 -11   7  158.78    9.10
  -1 -11   7  143.69    8.80
  -1  11  -7  145.49    8.80
   1  11   7  162.08    8.70
   1 -11  -7  171.88   11.00
   1 -11  -7  171.78    9.20
  -1  11  -7  150.08    9.10
   1 -11  -7  163.78    9.10
  -2 -11  -7   25.10    3.70
   2  11  -7   18.10    3.20
   2 -11   7   16.30    2.90
   2  11  -7   20.70    3.20
   2  11  -7   26.50    3.60
  -2  11   7   20.50    2.90
  -2 -11   7   23.90    3.40
  -2  11  -7   21.50    3.20
  -2  11  -7   20.50    3.20
   2  11   7   21.00    2.80
  -2 -11   7   13.40    2.50
  -2  11  -7   24.60    3.60
   2  11   7   21.80    2.10
   2 -11  -7   24.40    3.30
   3  11  -7   51.69    5.20
   3  11  -7   58.19    5.50
  -3 -11  -7   55.79    5.80
   3 -11   7   49.10    5.10
  -3  11   7   49.60    4.20
  -3  11  -7   53.09    5.50
   3  11   7   54.89    4.60
   3  11   7   59.59    4.00
   3 -11  -7   57.19    4.80
  -3 -11   7   60.59    5.10
  -3  11  -7   51.39    5.20
  -3 -11   7   50.29    5.00
  -3  11  -7   45.20    4.90
  -4 -11  -7   16.00    3.40
   4  11  -7   28.80    3.80
   4 -11   7   25.50    3.50
   4  11  -7   30.40    4.30
  -4  11   7   32.60    3.70
  -4 -11   7   20.10    3.60
   4  11   7   26.30    3.20
  -4  11  -7   26.40    3.70
   4 -11  -7   28.10    4.00
  -4  11  -7   30.00    4.00
  -4  11  -7   20.10    3.40
   4  11   7   26.60    3.50
  -5 -11  -7   24.80    4.20
   5 -11   7   26.90    3.80
   5  11  -7   22.10    4.10
  -5  11   7   23.40    3.30
   5  11  -7   31.30    4.10
  -5  11  -7   25.90    3.90
  -5  11  -7   17.10    3.50
  -5 -11   7   21.40    3.70
  -5  11  -7   25.50    4.10
   5  11   7   20.90    3.10
   5  11   7   27.50    3.70
   5 -11  -7   17.30    3.30
   6  11  -7    0.60    1.60
  -6  11   7    4.60    1.80
   6 -11   7    4.20    2.10
  -6 -11  -7    2.00    2.30
   6  11  -7    2.50    2.50
   6 -11  -7    2.50    2.20
  -6  11  -7    3.70    2.40
  -6  11  -7    2.70    2.70
  -6  11  -7   -0.20    1.90
  -6 -11   7    1.00    2.30
   6  11   7    2.60    2.20
   6  11   7    2.10    1.70
   7 -11   7   12.00    3.10
   7  11  -7   20.70    4.90
  -7 -11  -7   15.60    3.60
   7  11  -7   17.90    3.50
  -7  11   7   15.60    3.40
  -7  11  -7   19.30    4.10
  -7 -11   7   10.40    3.70
   7  11   7   18.80    3.30
  -7  11  -7   18.80    3.80
   7  11   7   16.40    3.90
  -7  11  -7   20.40    4.50
   7 -11  -7   13.00    3.40
   0  12  -7   -1.20    1.20
   0  12  -7   -2.90    1.20
   0 -12  -7    0.30    1.60
   0 -12   7    0.80    1.50
   0  12  -7   -0.50    1.50
   0 -12  -7   -0.10    2.90
   1  12  -7    2.60    1.90
   1 -12   7    0.50    1.60
  -1 -12  -7    3.60    2.20
   1  12  -7    2.40    1.80
   1  12  -7    2.10    1.80
   1  12   7    2.30    1.60
  -1  12  -7    3.20    1.70
  -1  12  -7    1.40    1.80
  -1 -12   7    4.70    1.80
  -1  12  -7   -0.30    1.30
   1  12   7    2.00    0.90
   2  12  -7    1.60    1.50
   2  12  -7    0.10    1.60
   2  12  -7    0.70    1.80
  -2 -12  -7    3.10    2.00
   2 -12   7    1.90    1.70
  -2 -12   7   -1.00    1.40
  -2  12  -7    0.80    1.50
   2 -12  -7    2.10    1.70
   2  12   7    1.00    1.00
  -2  12  -7    8.50    2.50
  -2 -12   7    1.40    1.50
  -2  12  -7    1.30    1.30
   2  12   7    0.60    1.30
   3  12  -7   20.30    3.40
   3 -12   7   15.20    3.00
  -3 -12  -7   15.00    3.50
  -3 -12   7   15.40    3.20
  -3  12  -7   17.70    3.10
   3  12   7   11.90    2.70
  -3 -12   7   19.00    3.10
  -3  12  -7   14.40    3.10
   3  12   7   15.30    2.30
  -3  12  -7   13.80    3.00
   3 -12  -7   13.00    2.90
   4  12  -7    3.30    2.10
   4 -12   7    4.00    2.00
  -4 -12  -7    3.10    2.40
  -4  12   7    8.30    2.30
   4  12  -7    4.80    2.50
  -4  12  -7    5.60    2.50
  -4 -12   7    7.80    2.50
   4  12   7    6.00    1.80
  -4  12  -7    4.10    2.50
   4 -12  -7    2.70    2.10
   4  12   7    7.60    2.30
  -4  12  -7    9.40    2.50
  -5  12   7   12.80    2.70
   5  12  -7   17.00    4.00
   5 -12   7    9.70    2.70
   5  12  -7   14.40    3.10
  -5 -12  -7    8.50    3.00
   5 -12  -7   15.90    3.40
  -5 -12   7    6.80    2.60
  -5  12  -7   15.10    3.30
  -5  12  -7   10.40    3.20
  -5  12  -7    8.20    3.00
   5  12   7   14.40    3.10
   5  12   7   11.40    2.40
  -6  12   7    7.70    2.60
   6 -12   7    5.90    2.70
   6  12  -7   14.50    4.20
   6  12  -7    8.90    2.80
  -6 -12  -7    8.90    3.70
   6 -12  -7    5.20    2.80
  -6  12  -7   11.20    3.60
  -6  12  -7   12.40    3.40
   6  12   7    4.90    2.20
  -6  12  -7    6.60    3.50
  -6 -12   7    8.40    3.30
   6  12   7   14.90    3.70
   0 -13   7    3.80    2.10
   0  13  -7    3.10    2.10
   0  13  -7    2.90    1.80
   0  13  -7    4.10    2.00
  -1 -13  -7  103.79    7.60
   1  13  -7  110.69    7.30
   1  13  -7   89.39    7.10
   1  13  -7   97.79    6.70
   1 -13   7   98.99    7.00
  -1 -13   7   91.49    6.90
  -1  13  -7   87.09    6.40
   1  13   7  102.49    6.90
  -1  13  -7   86.89    6.90
  -1  13  -7   86.59    7.00
   1  13   7   95.19    5.00
   2  13  -7    5.30    2.50
  -2 -13  -7    0.90    1.90
   2 -13   7    4.10    2.30
   2  13  -7    1.80    2.30
   2  13   7    4.60    2.00
   2  13   7    1.50    1.20
  -2 -13   7    1.00    1.30
   2 -13  -7    2.80    2.50
  -2 -13   7    5.10    2.50
  -2  13  -7    2.20    1.90
  -2  13  -7    2.10    2.10
  -2  13  -7    5.00    2.00
   3 -13   7   39.60    4.80
  -3 -13  -7   35.50    5.20
   3  13  -7   40.40    5.10
   3  13   7   41.30    3.50
  -3  13  -7   36.50    4.70
   3  13   7   48.90    5.30
  -3  13  -7   38.10    5.10
  -3  13  -7   34.10    4.40
  -3 -13   7   36.40    5.10
  -3 -13   7   37.50    4.60
   3 -13  -7   48.50    5.40
  -4 -13  -7    2.70    2.60
   4  13  -7   -1.80    2.00
   4  13  -7    1.40    2.70
   4 -13   7   -0.40    2.00
   4  13   7    2.00    1.80
   4  13   7    2.20    1.60
  -4  13  -7    1.80    2.00
   4 -13  -7    0.70    2.10
  -4  13  -7   -1.00    1.70
  -4 -13   7    3.10    2.60
  -4  13  -7    0.50    2.50
   0  14  -7    2.50    2.10
   0 -14   7    0.10    2.30
   0  14  -7   -2.00    1.90
   0  14  -7   -1.10    1.40
   1 -14   7   -1.10    2.10
   1  14  -7    0.80    1.80
   1  14  -7    0.30    2.10
   1  14  -7    0.50    2.10
  -1  14  -7    0.30    1.90
   1  14   7    0.70    1.10
  -1  14  -7    0.10    1.70
  -1 -14   7    1.80    2.30
  -1  14  -7    2.10    1.70
  -2 -14  -7   -0.90    2.20
   2 -14   7    2.30    2.50
   2  14  -7    1.80    2.80
  -2 -14   7   -1.40    1.30
  -2  14  -7    1.10    2.00
   2  14   7    3.80    2.30
  -2  14  -7    0.30    1.60
   2  14   7    0.50    1.10
  -2  14  -7    1.90    2.20
   0   0  -8 2881.11  118.19
   0   0   8 2415.46  105.29
   0   0   8 2743.53  104.59
   0   0   8 2346.07  105.19
   0   0  -8 2760.92  118.19
   1   0  -8    0.50    0.50
   1   0   8    0.00    0.40
  -1   0   8    1.00    0.70
   1   0   8   -0.60    0.40
  -1   0  -8   -0.40    0.30
   1   0  -8    0.30    0.40
   1   0   8   -0.10    0.50
  -1   0   8    0.20    0.40
  -1   0  -8   -0.40    0.30
  -2   0  -8  720.13   32.60
   2   0   8  736.13   32.30
   2   0   8  774.62   32.10
  -2   0   8  728.33   32.50
   2   0   8  763.02   32.60
  -2   0   8  752.22   32.50
   2   0  -8  770.02   32.70
   2   0  -8  763.22   32.50
  -2   0  -8  785.02   32.30
   3   0   8    2.00    0.70
  -3   0  -8    0.40    1.00
   3   0  -8    0.50    0.40
  -3   0   8   -0.40    0.50
  -3   0  -8    0.20    0.50
   3   0  -8    0.10    0.50
  -3   0   8   -0.20    0.50
   3   0   8   -0.70    0.70
   3   0   8   -0.10    0.50
  -3   0  -8    0.80    0.50
  -3   0  -8    0.10    0.60
   4   0  -8  323.47   15.00
  -4   0   8  337.87   14.70
  -4   0  -8  309.57   14.80
   4   0   8  339.47   15.50
   4   0   8  313.27   14.70
   4   0  -8  354.56   15.60
  -4   0  -8  336.67   14.20
  -4   0  -8  324.07   14.80
   4   0  -8  294.27   14.10
  -4   0   8  318.77   15.00
  -4   0  -8  337.37   15.40
   4   0   8  327.27   14.90
  -4   0  -8  328.97   14.20
  -5   0  -8    1.00    0.70
   5   0  -8    1.00    0.70
   5   0   8   -0.10    0.60
  -5   0  -8   -1.00    0.70
   5   0  -8   -0.70    0.70
   5   0   8   -0.40    1.10
  -5   0   8    0.50    0.70
  -5   0   8   -0.60    0.60
  -6   0  -8   80.69    5.10
   6   0  -8   84.19    4.60
   6   0   8   87.09    6.70
   6   0   8   80.19    5.10
   6   0  -8   83.19    5.20
  -6   0   8   82.89    4.90
  -6   0   8   80.59    5.10
   7   0  -8   -0.50    0.80
  -7   0   8   -0.60    1.00
  -7   0  -8   -0.60    1.00
  -7   0   8    0.10    0.90
   7   0   8    0.60    0.90
   8   0  -8   14.60    2.40
  -8   0   8   17.40    2.70
  -8   0  -8   13.90    2.50
   8   0   8   15.10    2.60
   9   0   8    0.90    1.60
  -9   0  -8    0.00    1.60
   9   0  -8   -0.90    1.20
  -9   0   8    1.20    1.60
 -10   0   8   42.90    4.80
 -10   0  -8   41.40    5.00
  10   0   8   38.20    4.70
 -11   0   8   -1.30    2.50
 -11   0  -8   -1.40    2.30
  11   0   8   -2.80    2.30
   0   1   8    0.30    0.50
   0   1   8    0.40    0.50
   0  -1   8    0.80    0.40
   0  -1  -8   -0.30    0.40
   0  -1  -8    0.30    0.40
   0  -1   8    0.60    0.60
   0   1  -8    0.40    0.50
   0   1  -8    0.70    0.40
   0   1  -8    0.40    0.80
   0  -1   8   -0.40    0.70
   1  -1   8  239.48   11.70
   1  -1   8  276.07   12.10
   1   1  -8  246.58   12.00
  -1  -1  -8  264.97   11.80
   1  -1   8  265.77   11.60
   1   1  -8  269.17   11.50
   1   1  -8  241.08   11.80
  -1   1   8  255.97   11.90
  -1   1   8  260.77   11.80
  -1  -1  -8  275.97   11.40
   1  -1  -8  250.67   11.70
  -1  -1   8  246.58   11.90
  -1   1  -8  268.47   12.10
   1  -1  -8  270.87   11.70
  -1  -1   8  271.77   12.10
  -1   1  -8  259.27   11.60
   1   1   8  259.37   11.40
   1   1   8  268.67   12.00
  -1   1  -8  250.27   11.60
  -1  -1   8  265.97   11.30
   2   1  -8  110.79    6.00
   2  -1   8  111.59    5.70
   2   1  -8  124.59    6.30
  -2  -1  -8  109.59    5.90
  -2  -1  -8  122.39    5.50
  -2   1   8  117.79    6.00
   2  -1   8  124.29    5.80
  -2   1   8  113.49    5.90
   2   1  -8  122.09    5.60
   2  -1   8  116.29    6.10
   2   1   8  116.99    6.00
   2  -1  -8  119.29    5.90
   2  -1  -8  118.89    6.00
  -2   1  -8  117.39    5.80
  -2   1  -8  121.29    5.70
  -2   1  -8  120.39    6.30
   2   1   8  122.09    5.70
  -2  -1   8  121.89    5.40
   2   1   8  112.09    6.00
  -2   1  -8  119.39    5.80
  -2  -1   8  108.79    6.00
  -3  -1  -8  184.68    8.20
   3   1  -8  192.78    8.30
   3   1  -8  178.08    9.10
   3  -1   8  172.18    8.60
   3  -1   8  193.78    9.20
  -3   1   8  180.78    8.80
   3  -1   8  179.68    8.50
  -3  -1  -8  191.78    8.90
   3   1  -8  169.98    8.80
  -3  -1  -8  179.58    8.80
  -3   1  -8  183.18    8.40
   3  -1  -8  175.68    8.60
  -3   1  -8  182.38    8.50
  -3   1  -8  185.28    8.70
  -3   1  -8  195.38    9.30
  -3  -1   8  174.48    8.80
   3  -1  -8  180.48    8.90
  -3  -1   8  178.98    8.30
   3   1   8  182.68    8.60
   3   1   8  187.98    9.00
  -4  -1  -8  290.37   13.80
  -4  -1  -8  306.17   13.00
   4   1  -8  288.37   13.20
  -4   1   8  301.57   13.40
   4   1  -8  278.67   13.80
  -4   1   8  282.27   13.50
  -4  -1  -8  284.27   13.70
  -4  -1  -8  298.47   13.10
   4   1  -8  325.57   14.30
   4  -1   8  297.07   14.00
   4  -1   8  297.37   13.20
   4  -1   8  305.47   13.60
  -4  -1   8  306.37   13.20
  -4  -1   8  275.97   13.60
   4  -1  -8  305.27   13.90
   4   1   8  275.77   13.90
  -4   1  -8  306.57   14.30
  -4   1  -8  300.27   13.80
   4   1   8  288.87   13.50
  -4   1  -8  299.47   13.30
  -4   1  -8  297.17   13.30
   4  -1  -8  302.67   13.00
   5   1  -8  490.65   22.70
   5  -1   8  509.35   23.60
   5  -1   8  525.45   24.20
   5  -1   8  538.95   23.20
   5   1  -8  500.65   22.00
  -5  -1  -8  519.65   22.60
  -5   1   8  537.55   23.60
  -5  -1  -8  459.25   22.50
  -5   1   8  501.05   23.30
  -5  -1   8  537.35   23.20
  -5   1  -8  522.35   23.30
   5  -1  -8  471.65   22.60
  -5   1  -8  512.85   22.60
  -5   1  -8  528.75   22.00
  -5   1  -8  520.35   22.10
  -5  -1   8  548.65   23.80
   5  -1  -8  510.15   21.80
   5   1   8  533.25   24.30
   5   1   8  519.65   23.60
   6   1  -8   20.70    2.10
  -6   1   8   18.70    2.30
   6  -1   8   18.80    2.40
  -6   1   8   20.50    2.40
  -6  -1  -8   16.40    2.20
  -6  -1  -8   19.40    2.60
   6   1  -8   16.50    2.30
  -6  -1   8   18.60    2.50
   6  -1  -8   18.60    2.40
   6   1   8   17.40    2.30
  -6   1  -8   21.70    2.70
  -6  -1   8   20.70    2.30
   6   1   8   19.30    3.10
   7  -1   8  299.37   14.80
   7   1  -8  293.87   14.20
  -7  -1  -8  276.47   14.10
   7   1  -8  289.97   15.20
  -7   1   8  306.77   14.60
   7  -1  -8  302.77   14.30
  -7  -1   8  301.37   14.30
  -7  -1   8  312.17   14.80
   7   1   8  293.47   14.70
  -7   1  -8  282.37   14.20
  -8  -1  -8   58.09    4.80
   8   1  -8   66.29    4.70
  -8   1   8   63.09    4.80
   8  -1   8   71.99    5.20
  -8   1  -8   64.49    4.90
   8  -1  -8   63.49    4.80
   8   1   8   62.09    4.90
  -8  -1   8   67.59    4.70
  -9  -1  -8  129.99    8.30
   9   1  -8  131.69    8.10
   9  -1   8  139.29    8.50
  -9   1   8  139.79    8.30
   9  -1  -8  141.39    8.30
  -9   1  -8  128.69    8.30
   9   1   8  120.49    8.20
  -9  -1   8  147.69    8.20
 -10   1   8    8.30    2.50
 -10  -1  -8    5.70    2.20
  10  -1   8    4.90    2.20
  10   1   8    8.90    2.60
 -10   1  -8    3.50    2.10
  10  -1  -8    8.00    2.50
 -11  -1  -8   17.20    3.80
  11  -1   8   30.40    4.80
 -11   1   8   28.70    4.30
  11   1   8   27.10    4.60
 -11   1  -8   32.40    4.90
   0   2   8  282.47   12.40
   0   2  -8  302.67   13.00
   0  -2  -8  275.27   12.50
   0   2  -8  284.27   12.30
   0  -2   8  277.87   12.70
   0  -2  -8  280.57   12.70
   0  -2   8  280.67   12.20
   0  -2   8  275.07   12.50
   0   2   8  265.57   12.00
   0   2  -8  268.07   12.70
  -1   2   8  398.36   19.50
   1  -2   8  413.36   19.30
   1   2  -8  450.25   20.30
   1   2  -8  461.75   19.70
   1  -2   8  441.06   19.30
  -1  -2  -8  503.35   19.80
   1  -2   8  464.15   19.80
  -1  -2  -8  449.16   20.20
   1   2  -8  456.75   20.40
  -1   2   8  436.26   19.40
  -1  -2   8  458.05   19.70
  -1   2  -8  487.05   19.90
   1   2   8  462.25   19.70
  -1   2  -8  459.65   20.50
   1  -2  -8  458.65   20.20
   1   2   8  484.25   19.10
   1  -2  -8  447.86   20.10
  -1   2  -8  416.56   20.00
  -1   2  -8  470.55   20.20
  -1  -2   8  443.36   19.10
   1   2   8  452.15   19.40
  -1  -2   8  425.76   19.60
  -2   2   8  349.37   16.20
  -2  -2  -8  366.06   16.30
  -2  -2  -8  354.86   16.10
   2  -2   8  377.96   16.60
   2  -2   8  348.87   16.10
  -2   2   8  351.46   16.10
   2   2  -8  367.36   16.40
   2   2  -8  354.26   15.50
   2  -2   8  364.06   16.00
   2   2  -8  369.56   16.20
  -2   2  -8  379.56   15.90
  -2   2  -8  339.67   15.90
  -2  -2   8  370.26   15.80
   2   2   8  354.16   16.30
   2  -2  -8  357.86   16.00
   2  -2  -8  340.67   16.00
  -2   2  -8  392.26   16.50
   2   2   8  364.76   15.90
  -2  -2   8  386.66   16.40
  -2   2  -8  337.67   15.80
   3  -2   8  352.46   15.60
  -3   2   8  348.37   16.00
   3   2  -8  368.56   16.30
   3  -2   8  369.36   16.40
   3  -2   8  351.46   16.00
   3   2  -8  354.86   15.60
  -3  -2  -8  350.46   16.10
   3   2  -8  365.86   16.50
  -3  -2  -8  359.16   16.30
  -3   2  -8  340.77   15.90
   3   2   8  351.36   15.90
   3   2   8  358.76   16.30
  -3   2  -8  354.76   15.90
  -3  -2   8  366.26   15.50
  -3   2  -8  361.16   15.80
  -3  -2   8  348.37   16.30
  -3   2  -8  359.96   16.60
   3  -2  -8  356.76   16.10
   3  -2  -8  359.16   16.20
   4  -2   8  189.98    9.10
   4   2  -8  192.08    9.30
  -4  -2  -8  179.48    9.10
   4   2  -8  191.48    8.70
   4   2  -8  187.08    9.70
  -4   2   8  181.48    9.00
  -4   2   8  192.78    9.00
   4  -2   8  194.38    8.60
  -4  -2  -8  179.28    9.30
   4   2   8  188.48    9.50
   4   2   8  176.78    9.00
   4  -2  -8  192.48    8.40
  -4  -2   8  161.28    9.10
  -4   2  -8  178.88    9.70
  -4   2  -8  188.18    9.10
  -4   2  -8  195.38    9.00
  -4   2  -8  188.08    8.90
   4  -2  -8  182.98    9.30
  -4  -2   8  188.88    8.50
   5   2  -8   24.90    3.20
  -5  -2  -8   28.90    2.60
  -5   2   8   30.90    2.40
  -5   2   8   26.40    2.70
   5  -2   8   30.30    3.00
   5   2  -8   25.60    2.80
  -5  -2  -8   28.90    2.90
   5   2  -8   27.90    2.20
  -5  -2   8   26.30    2.10
   5   2   8   26.70    3.30
  -5   2  -8   26.80    2.80
   5  -2  -8   27.00    2.90
  -5   2  -8   29.00    2.30
  -5   2  -8   28.00    3.30
  -5   2  -8   27.20    2.20
  -5  -2   8   23.60    2.80
   5   2   8   21.70    2.50
  -6   2   8   70.29    4.60
   6  -2   8   71.59    4.50
   6  -2   8   72.69    4.90
  -6   2   8   81.69    5.20
   6   2  -8   74.99    4.30
  -6  -2  -8   70.69    4.70
   6   2  -8   66.89    4.60
  -6  -2  -8   64.89    4.60
  -6  -2   8   74.39    5.00
  -6  -2   8   76.49    4.40
   6   2   8   73.79    5.40
  -6   2  -8   71.09    4.70
   6   2   8   72.59    4.70
   6  -2  -8   71.89    4.80
  -7  -2  -8   37.30    3.80
  -7   2   8   36.40    3.70
   7   2  -8   39.20    3.40
  -7  -2  -8   37.40    3.50
   7   2  -8   38.80    3.10
   7  -2   8   38.30    3.90
   7   2   8   36.40    3.90
   7  -2  -8   42.00    3.70
  -7  -2   8   44.90    3.70
  -7   2  -8   37.40    3.80
  -7  -2   8   46.60    3.30
   7   2   8   44.90    4.90
  -8  -2  -8   26.30    3.50
   8   2  -8   28.50    3.40
   8  -2   8   21.20    3.20
  -8   2   8   29.30    3.40
  -8  -2   8   26.40    3.60
   8  -2  -8   33.80    3.80
  -8  -2   8   22.20    3.10
   8   2   8   30.80    3.60
  -8   2  -8   27.60    3.40
  -9  -2  -8   51.39    5.00
  -9   2   8   47.60    4.90
   9  -2   8   61.59    5.00
   9  -2  -8   52.79    4.50
  -9   2  -8   44.10    4.80
   9   2   8   46.80    4.90
 -10  -2  -8    2.20    2.00
 -10   2   8    4.20    2.10
  10  -2   8    0.30    1.90
  10  -2  -8    3.90    2.30
  10   2   8    1.30    2.00
 -10   2  -8   -0.10    1.90
 -11  -2  -8    4.60    2.90
  11  -2   8    8.50    3.30
 -11   2   8    7.30    3.00
 -11   2  -8    5.70    3.50
  11   2   8    5.80    3.10
   0   3  -8   -0.50    0.30
   0   3  -8   -0.40    0.60
   0   3  -8   -0.50    0.50
   0  -3  -8    0.70    0.40
   0   3   8   -0.10    0.50
   0   3   8    0.30    0.40
   0  -3   8   -0.10    0.40
   0  -3  -8    0.10    0.50
   0   3   8    0.10    0.40
   0   3  -8    0.60    0.60
   0  -3   8   -0.10    0.50
  -1  -3  -8    7.90    0.90
   1  -3   8    7.60    1.10
  -1  -3  -8    5.50    1.20
  -1   3   8    6.00    1.00
   1   3  -8    5.00    1.10
   1  -3   8    7.40    1.10
  -1  -3  -8    6.00    1.10
  -1   3   8    5.60    1.10
   1   3  -8    7.40    1.40
   1   3   8    7.70    0.90
  -1   3  -8    4.60    1.00
  -1  -3   8    3.60    0.80
  -1  -3   8    8.50    1.30
   1  -3  -8    7.50    1.10
  -1   3  -8    6.30    1.10
   1   3   8    6.10    1.00
   1  -3  -8    5.00    1.00
  -1   3  -8    7.80    1.00
  -1   3  -8    5.10    1.20
  -2   3   8   90.89    5.10
  -2  -3  -8   97.49    5.20
  -2  -3  -8   98.19    5.40
  -2   3   8  101.19    5.40
   2   3  -8  104.09    5.60
   2   3  -8   95.89    5.20
   2  -3   8  100.29    5.20
   2  -3   8  100.59    5.00
   2   3   8  101.49    5.10
   2  -3  -8   93.59    5.10
  -2   3  -8  102.89    5.50
   2  -3  -8   86.99    5.00
   2   3   8  107.99    5.40
  -2  -3   8   95.89    5.00
  -2  -3   8  101.39    4.60
  -2  -3   8  103.59    5.50
  -2   3  -8   94.29    4.80
  -2   3  -8   92.99    5.00
  -2   3  -8   93.79    5.10
   3   3  -8   62.99    4.30
   3   3  -8   67.89    3.70
   3  -3   8   67.69    3.50
  -3  -3  -8   61.19    4.10
   3  -3   8   65.59    3.90
   3   3  -8   73.39    4.20
  -3   3   8   64.89    3.90
  -3  -3  -8   65.99    4.00
  -3  -3   8   54.19    4.00
   3  -3  -8   66.99    4.10
   3   3   8   66.29    4.10
   3  -3  -8   67.59    4.00
  -3  -3   8   74.49    3.30
  -3   3  -8   66.69    3.80
   3  -3  -8   71.69    3.30
   3   3   8   64.99    3.80
  -3   3  -8   63.79    4.40
  -3   3  -8   64.49    3.90
  -3   3  -8   66.09    3.90
  -4   3   8  117.99    6.30
  -4  -3  -8  117.69    6.30
   4   3  -8  115.59    5.90
   4   3  -8  104.49    6.20
   4  -3   8  116.39    6.30
   4   3  -8  118.89    6.80
  -4  -3  -8  109.79    6.40
  -4   3   8  111.69    6.10
  -4   3  -8  118.39    6.20
   4   3   8  124.99    6.70
  -4  -3   8  112.29    6.50
  -4  -3   8  125.89    5.70
  -4   3  -8  123.69    6.20
  -4   3  -8  115.79    6.80
   4  -3  -8  117.59    6.40
  -4   3  -8  125.19    6.20
   4   3   8  111.69    6.20
   5   3  -8  291.27   14.00
  -5   3   8  286.47   12.80
   5   3  -8  254.27   13.20
   5  -3   8  277.77   13.10
   5   3  -8  280.07   12.90
  -5  -3  -8  290.67   13.60
  -5  -3  -8  253.67   13.10
  -5   3   8  273.87   13.00
   5   3   8  290.77   13.60
  -5  -3   8  254.37   13.20
  -5   3  -8  286.07   13.30
  -5   3  -8  277.47   13.00
  -5   3  -8  280.37   13.10
   5   3   8  262.37   12.90
  -5   3  -8  286.87   14.00
   5  -3  -8  287.77   13.50
  -5  -3   8  261.87   12.30
  -6   3   8   76.99    4.90
   6  -3   8   75.79    4.70
  -6  -3  -8   77.59    5.20
   6   3  -8   82.99    4.80
   6  -3   8   71.89    5.00
   6   3  -8   81.39    5.00
  -6  -3  -8   69.99    4.90
  -6   3  -8   77.89    5.00
   6   3   8   86.99    5.80
   6   3   8   77.79    5.00
  -6  -3   8   75.39    5.20
   6  -3  -8   78.79    5.20
  -7  -3  -8  207.28   10.70
  -7   3   8  205.38   10.60
   7   3  -8  214.08   10.30
  -7  -3  -8  199.18   10.80
   7  -3   8  193.68   10.60
   7   3  -8  203.68   10.60
   7   3   8  188.28   10.50
  -7  -3   8  209.68   10.90
  -7   3  -8  200.48   10.70
   7  -3  -8  206.68   10.90
   7   3   8  212.78   11.50
   8  -3   8   52.19    5.10
  -8  -3  -8   40.60    4.30
   8   3  -8   42.10    4.20
  -8   3   8   53.69    4.40
   8   3  -8   53.19    4.10
   8  -3  -8   47.50    4.10
  -8   3  -8   46.30    4.70
  -8  -3   8   46.70    4.30
   8   3   8   48.70    4.80
  -9   3   8   99.99    6.90
   9  -3   8   93.09    6.80
  -9  -3  -8   99.09    6.70
   9   3   8   93.79    6.80
   9  -3  -8   92.79    6.70
  -9  -3   8  108.29    7.30
  -9   3  -8   94.29    6.60
 -10   3   8   36.10    4.70
  10  -3   8   33.90    4.60
 -10  -3  -8   33.80    4.40
 -10   3  -8   31.60    4.20
  10  -3  -8   32.30    4.30
  10   3   8   39.40    4.90
   0   4  -8  654.03   30.20
   0   4   8  725.03   29.10
   0  -4   8  641.64   29.50
   0   4  -8  756.22   29.50
   0   4   8  677.43   29.10
   0   4  -8  659.53   30.40
   0   4  -8  714.43   30.40
   0  -4  -8  726.53   29.90
   0  -4   8  674.83   29.60
   0   4   8  695.53   29.10
   0  -4  -8  657.73   30.10
   1  -4   8  183.28    9.00
  -1   4   8  192.68    8.50
  -1  -4  -8  195.48    8.40
  -1  -4  -8  189.38    9.20
   1   4  -8  179.08    9.00
  -1   4   8  181.08    9.10
  -1   4   8  186.28    8.50
   1  -4   8  206.58    8.90
   1   4  -8  187.88    9.20
  -1  -4  -8  178.58    8.80
  -1  -4   8  189.08    9.20
  -1  -4   8  183.58    8.90
   1  -4  -8  193.28    8.80
   1  -4  -8  167.68    8.80
  -1   4  -8  183.38    9.00
   1   4   8  189.68    8.70
   1   4   8  181.58    8.60
   1   4   8  194.08    8.70
   1  -4  -8  197.98    8.20
  -1   4  -8  174.18    8.30
  -1   4  -8  177.08    8.80
  -1   4  -8  177.98    9.10
  -2   4   8   63.89    3.60
  -2  -4  -8   63.99    4.20
  -2  -4  -8   67.69    3.70
   2  -4   8   65.19    3.50
   2  -4   8   64.09    3.90
  -2   4   8   64.59    3.90
  -2  -4  -8   71.19    4.00
   2   4  -8   65.99    4.10
   2   4  -8   71.59    4.40
  -2   4   8   63.49    3.60
  -2   4  -8   65.79    3.60
  -2   4  -8   63.59    4.20
  -2  -4   8   69.69    3.80
  -2   4  -8   61.39    4.00
   2  -4  -8   68.19    4.00
   2  -4  -8   69.59    3.30
  -2   4  -8   62.39    3.90
   2  -4  -8   67.19    4.00
   2   4   8   60.59    3.70
   2   4   8   66.39    3.70
  -3  -4  -8  417.36   19.50
  -3  -4  -8  428.46   19.10
   3  -4   8  427.66   17.80
   3  -4   8  413.16   18.50
  -3   4   8  417.46   18.40
   3   4  -8  411.06   19.50
   3   4  -8  439.06   19.30
  -3   4  -8  398.76   19.00
  -3  -4   8  388.86   18.60
   3  -4  -8  386.06   19.10
   3   4   8  410.86   18.20
  -3  -4   8  417.56   18.20
   3   4   8  377.86   18.40
  -3   4  -8  416.26   19.50
   3  -4  -8  451.15   18.30
  -3   4  -8  441.76   18.90
   3  -4  -8  432.76   19.10
  -3   4  -8  440.56   19.20
   4   4  -8  126.89    6.80
   4   4  -8  134.39    6.60
   4  -4   8  124.49    6.90
  -4  -4  -8  127.09    7.10
  -4   4   8  126.29    6.90
   4   4  -8  122.79    7.30
  -4   4   8  136.09    6.80
  -4  -4  -8  118.79    6.70
   4   4   8  129.39    7.10
  -4  -4   8  136.79    7.30
  -4   4  -8  128.09    7.40
   4  -4  -8  121.89    6.90
  -4   4  -8  135.59    6.80
  -4   4  -8  128.59    6.60
   4   4   8  125.19    6.80
  -4   4  -8  117.79    6.70
   5   4  -8  591.14   27.00
  -5  -4  -8  595.14   27.30
   5   4  -8  615.54   28.10
   5  -4   8  636.24   27.70
  -5   4   8  601.34   27.60
   5   4  -8  632.94   27.40
  -5  -4  -8  611.64   27.80
   5   4   8  626.94   28.10
   5   4   8  584.64   27.50
  -5   4  -8  601.34   27.30
  -5  -4   8  653.03   28.10
  -5   4  -8  631.84   28.10
  -5   4  -8  640.24   27.30
   5  -4  -8  628.34   27.70
  -5   4  -8  597.54   27.20
   6  -4   8   22.70    3.00
  -6  -4  -8   24.70    2.90
  -6   4   8   24.10    2.80
   6   4  -8   34.40    4.20
   6  -4   8   25.80    2.90
   6   4  -8   24.80    2.90
  -6  -4  -8   22.60    2.90
   6   4  -8   24.40    2.60
  -6  -4   8   18.60    2.70
   6  -4  -8   18.40    2.80
   6   4   8   20.70    2.70
  -6   4  -8   28.40    3.10
   6   4   8   24.20    3.40
  -6   4  -8   26.10    2.90
  -6   4  -8   26.20    2.90
   7  -4   8   -0.10    1.10
  -7   4   8    0.10    1.30
   7  -4   8   -0.60    1.20
   7   4  -8    1.40    1.20
  -7  -4  -8    1.40    1.30
   7   4  -8   -0.20    0.90
  -7  -4  -8   -0.40    1.20
  -7  -4   8    1.50    1.20
   7  -4  -8    0.70    1.00
   7   4   8    0.10    1.10
  -7   4  -8    2.80    1.30
   7   4   8   -1.40    1.60
  -8  -4  -8   19.50    3.10
  -8   4   8   16.00    2.70
   8   4  -8   20.50    2.80
  -8  -4  -8   16.70    2.90
   8  -4   8   19.50    3.00
   8   4   8   19.70    3.80
  -8   4  -8   13.60    2.50
  -8  -4   8    9.40    2.50
   8  -4  -8   16.50    2.70
   8   4   8   26.30    3.40
   9  -4   8    4.80    2.00
  -9   4   8    3.50    2.00
  -9  -4  -8    9.00    2.30
   9   4   8    5.50    1.90
  -9  -4   8    4.50    2.00
   9  -4  -8    6.40    2.20
  -9   4  -8    5.60    2.10
 -10  -4  -8   11.90    2.90
  10  -4   8    9.30    2.80
 -10   4   8   13.90    3.30
 -10   4  -8    5.90    2.30
  10  -4  -8    9.20    2.60
  10   4   8    5.50    2.70
   0   5   8   -0.20    0.40
   0   5  -8   -0.30    0.70
   0  -5  -8    0.80    0.80
   0  -5   8    0.00    0.50
   0   5   8    0.10    0.40
   0   5  -8   -0.60    0.50
   0  -5   8   -0.10    0.60
   0   5   8   -0.10    0.40
   0  -5  -8    0.50    0.50
   0   5  -8   -1.10    0.70
   0  -5  -8   -0.50    0.40
  -1   5   8   45.40    2.50
  -1  -5  -8   46.70    3.40
   1  -5   8   49.40    3.20
   1  -5   8   43.80    2.90
  -1   5   8   44.40    3.20
   1   5  -8   45.90    3.30
  -1  -5  -8   54.49    2.90
   1   5  -8   42.80    3.30
  -1   5   8   47.50    2.50
   1   5  -8   46.80    3.50
  -1  -5  -8   47.70    3.30
  -1  -5   8   45.50    3.10
  -1  -5   8   48.90    3.30
  -1   5  -8   54.69    2.80
   1   5   8   45.90    2.80
  -1   5  -8   49.00    3.30
   1   5   8   44.30    2.60
  -1   5  -8   48.90    3.40
   1  -5  -8   51.19    2.80
   1  -5  -8   50.19    3.20
   1  -5  -8   47.10    3.20
   1   5   8   53.39    2.70
  -1   5  -8   46.50    3.50
  -2  -5  -8   98.09    5.60
   2   5  -8  105.69    6.00
  -2   5   8  104.19    5.50
   2  -5   8   92.59    5.50
   2  -5   8   99.59    5.10
   2   5  -8   93.79    5.70
  -2  -5  -8  101.69    5.90
  -2   5   8  105.79    5.00
  -2   5   8   99.09    4.90
  -2   5  -8  105.49    5.20
   2   5   8   99.49    5.20
  -2  -5   8  100.49    5.40
   2  -5  -8  106.59    4.90
  -2  -5   8   91.29    5.60
   2  -5  -8  100.99    5.60
  -2   5  -8  100.99    5.90
  -2   5  -8   94.89    5.70
  -2   5  -8  103.49    5.60
   2  -5  -8  105.79    5.60
   2   5   8  102.79    5.30
  -3   5   8   13.40    1.80
  -3  -5  -8   12.80    2.00
  -3  -5  -8   13.00    1.90
   3   5  -8   13.80    1.90
   3   5  -8   12.00    2.10
   3  -5   8   12.90    1.90
   3   5   8    9.80    1.50
   3  -5  -8   13.50    1.90
  -3   5  -8   14.20    2.00
  -3   5  -8   15.30    1.70
  -3   5  -8   12.60    2.10
  -3  -5   8   13.10    2.00
  -3  -5   8   10.70    1.50
   3   5   8    8.50    1.60
   3  -5  -8   10.10    1.70
  -3   5  -8   12.10    2.00
   4   5  -8  120.99    6.30
  -4   5   8  104.89    6.20
   4  -5   8  110.49    6.30
  -4  -5  -8  113.89    6.40
  -4  -5  -8   99.99    6.60
  -4   5   8  114.49    6.00
   4   5  -8  115.89    6.50
   4   5  -8  120.29    7.00
   4   5   8  116.29    6.30
  -4  -5   8  106.19    6.40
  -4   5  -8  118.89    6.30
  -4   5  -8  116.89    6.60
   4   5   8  103.39    6.00
  -4   5  -8  113.89    6.40
  -4   5  -8  126.39    7.10
  -5  -5  -8  174.78   10.30
  -5  -5  -8  200.38   10.00
   5   5  -8  202.88   10.10
   5   5  -8  207.68    9.90
   5  -5   8  175.78    9.60
  -5   5   8  174.98    9.50
   5   5  -8  209.28   10.90
   5  -5  -8  176.18   10.10
   5   5   8  198.78    9.60
  -5   5  -8  203.88   10.10
  -5   5  -8  192.68    9.90
  -5  -5   8  196.58   10.00
  -5   5  -8  206.28   10.20
  -5   5  -8  205.08   10.80
   5   5   8  180.08    9.80
   6   5  -8  156.48    9.50
   6  -5   8  159.08    8.60
  -6   5   8  150.28    8.50
  -6  -5  -8  156.08    8.70
   6   5  -8  171.48    8.60
   6   5  -8  168.28    8.90
  -6  -5  -8  171.88    9.40
  -6   5  -8  162.98    8.90
  -6   5  -8  158.68    8.80
  -6   5  -8  167.58    8.80
  -6   5  -8  166.38    9.70
  -6  -5   8  152.68    8.90
   6   5   8  154.98    9.00
   6  -5  -8  157.38    9.00
   6   5   8  164.58    8.60
   7   5  -8    9.30    2.00
  -7  -5  -8    3.90    1.60
   7  -5   8    6.60    1.80
   7   5  -8    7.80    1.90
   7  -5   8    3.80    1.60
  -7   5   8    3.80    1.60
  -7  -5  -8    5.60    1.80
  -7   5  -8    5.90    1.60
   7   5   8    1.80    1.30
  -7  -5   8    4.60    1.70
   7  -5  -8    5.70    1.80
   7   5   8    9.40    2.60
  -8  -5  -8   80.69    5.90
   8  -5   8   76.59    5.80
   8   5  -8   87.19    5.80
  -8  -5  -8   82.39    6.20
  -8   5   8   80.59    5.90
  -8  -5   8   77.29    6.00
   8  -5  -8   87.29    6.30
  -8   5  -8   89.69    6.10
   8   5   8   76.89    5.60
   8   5   8   77.99    6.70
   9  -5   8    9.00    2.50
  -9  -5  -8   14.70    2.90
  -9   5   8    9.80    2.60
   9   5   8    9.50    2.40
  -9  -5   8   18.10    3.40
  -9   5  -8   12.40    2.80
   9  -5  -8   11.70    2.80
  10  -5   8  105.89    7.60
 -10  -5  -8  100.19    7.00
 -10   5   8   94.19    7.50
  10   5   8   85.69    6.90
  10  -5  -8   82.59    6.70
 -10  -5   8  110.29    9.00
 -10   5  -8   78.59    6.60
   0   6  -8   52.59    3.70
   0  -6  -8   51.69    3.50
   0  -6  -8   60.39    3.90
   0   6   8   48.60    3.00
   0   6  -8   49.99    3.70
   0  -6   8   42.20    3.20
   0  -6   8   49.60    3.30
   0  -6  -8   47.90    3.20
   0   6   8   50.09    2.40
   0   6   8   49.90    2.40
   0   6  -8   49.00    3.60
   1   6  -8   90.69    5.70
   1   6  -8   86.99    5.50
  -1   6   8   90.09    4.30
   1   6  -8   94.29    5.70
   1  -6   8  100.09    5.40
  -1  -6  -8   95.69    5.70
  -1   6   8   92.39    4.30
  -1   6   8   99.59    5.40
  -1  -6  -8  102.79    5.50
   1  -6   8   94.49    5.10
  -1  -6  -8  100.79    5.00
   1   6   8   90.99    4.50
   1   6   8   90.69    4.90
  -1  -6   8   93.09    5.40
   1  -6  -8  104.29    5.40
  -1   6  -8   98.39    5.70
   1  -6  -8   94.99    4.90
  -1   6  -8   91.29    5.50
  -1   6  -8  100.99    5.70
  -1  -6   8   89.69    5.20
   1  -6  -8   93.09    5.40
   1   6   8   90.99    4.50
  -2   6   8   12.50    1.30
  -2   6   8   12.00    1.50
   2  -6   8   12.00    1.80
   2   6  -8    9.70    1.80
  -2   6   8   11.40    1.70
  -2  -6  -8   12.40    2.00
   2  -6   8   11.70    1.50
  -2  -6  -8   10.70    1.70
   2   6  -8   10.70    2.00
  -2   6  -8   12.10    1.50
   2  -6  -8   13.70    1.90
   2  -6  -8   15.60    1.60
   2  -6  -8   10.30    1.70
  -2  -6   8    9.80    1.80
  -2   6  -8   14.00    2.20
   2   6   8    9.00    1.40
  -2  -6   8   10.70    1.70
  -2   6  -8   15.70    2.20
  -2   6  -8   13.00    2.00
   2   6   8    8.80    1.40
  -3   6   8  292.47   13.30
   3   6  -8  278.07   14.40
  -3  -6  -8  295.77   14.00
   3  -6   8  288.47   13.50
   3   6  -8  284.77   14.10
  -3  -6  -8  304.37   14.50
  -3   6  -8  298.67   14.10
   3   6   8  263.87   13.10
   3   6   8  277.67   13.20
  -3  -6   8  292.17   13.40
   3  -6  -8  297.07   14.00
  -3   6  -8  305.97   13.60
  -3  -6   8  278.57   13.70
  -3   6  -8  301.27   14.30
   3  -6  -8  302.87   14.20
  -3   6  -8  288.37   14.30
   4  -6   8   54.49    3.90
   4   6  -8   51.39    3.70
   4   6  -8   48.80    3.80
  -4  -6  -8   54.29    3.80
  -4   6   8   49.80    3.70
   4   6  -8   57.39    4.40
  -4  -6  -8   44.10    3.90
  -4   6  -8   50.69    3.90
  -4   6  -8   51.29    4.30
   4  -6  -8   49.20    3.90
   4   6   8   48.40    3.70
  -4   6  -8   56.79    3.60
  -4   6  -8   48.40    3.80
   4   6   8   47.50    3.70
  -4  -6   8   47.90    4.00
  -5   6   8  199.38   10.40
   5   6  -8  226.88   10.80
  -5  -6  -8  206.38   10.50
   5   6  -8  217.68   11.50
  -5  -6  -8  206.38   11.20
   5   6  -8  204.58   10.50
   5  -6   8  195.28   10.40
   5   6   8  199.78   10.60
  -5   6  -8  192.38   10.70
  -5   6  -8  212.48   11.40
  -5   6  -8  215.78   10.50
  -5   6  -8  195.78   10.60
   5   6   8  198.48   10.30
   5  -6  -8  206.88   11.00
  -5  -6   8  210.28   10.80
  -6   6   8    8.60    1.80
   6   6  -8   13.50    2.20
  -6  -6  -8   11.20    2.10
   6   6  -8    9.20    1.90
  -6  -6  -8    8.20    2.10
   6   6  -8   11.30    2.70
   6  -6   8    8.60    2.00
  -6   6  -8    9.80    2.00
  -6  -6   8    7.20    2.00
   6  -6  -8    9.20    2.10
   6   6   8    7.90    2.20
  -6   6  -8   13.00    2.40
  -6   6  -8    8.50    2.50
   6   6   8    7.40    1.90
  -6   6  -8    9.10    2.10
  -7  -6  -8   24.20    3.20
   7  -6   8   22.90    3.20
   7   6  -8   31.10    3.40
  -7  -6  -8   28.30    3.80
  -7   6   8   28.40    3.60
   7  -6  -8   31.60    4.00
  -7   6  -8   34.90    4.70
  -7   6  -8   28.10    3.50
  -7  -6   8   24.00    3.60
   7   6   8   34.70    3.70
   7   6   8   24.90    3.70
  -7   6  -8   35.80    3.90
  -7   6  -8   32.20    3.80
  -8  -6  -8    1.60    1.70
   8   6  -8    1.30    1.40
   8  -6   8    0.90    1.80
  -8   6   8    0.20    1.50
  -8  -6  -8   -0.20    1.30
  -8  -6   8    1.60    1.30
  -8   6  -8   -0.60    1.20
   8  -6  -8    1.20    1.40
   8   6   8    1.60    1.40
  -8   6  -8    0.30    1.40
  -8   6  -8   -0.80    1.40
   8   6   8   -0.20    1.90
  -8   6  -8   -0.10    2.30
  -9   6   8    3.50    1.90
   9   6  -8    6.30    2.30
   9  -6   8    6.60    2.40
  -9  -6  -8    8.00    2.50
  -9  -6  -8    4.00    2.20
   9   6   8    2.00    3.00
   9  -6  -8    6.10    2.40
  -9   6  -8    2.30    1.70
   9   6   8    5.90    2.00
  -9  -6   8    5.40    2.30
  10  -6   8    2.90    2.50
 -10   6   8    6.50    2.90
 -10   6  -8    7.40    2.70
 -10  -6   8    2.20    2.20
  10  -6  -8    5.20    2.30
  10   6   8    4.40    2.20
   0   7  -8    0.60    0.90
   0  -7  -8   -0.60    0.50
   0  -7  -8    0.90    1.00
   0  -7  -8   -1.00    0.70
   0   7  -8   -0.10    0.90
   0  -7   8    0.30    0.80
   0  -7   8    0.80    0.80
   0  -7  -8    0.70    0.70
   0   7  -8    0.10    0.90
  -1   7   8   14.40    0.90
   1   7  -8   21.10    2.50
   1   7  -8   17.50    2.50
   1   7  -8   15.10    2.20
   1  -7   8   16.80    1.90
   1  -7   8   14.10    2.00
  -1  -7  -8   17.00    2.40
  -1  -7  -8   15.10    1.80
  -1  -7  -8   16.60    2.10
   1   7   8   17.40    1.60
   1  -7  -8   17.70    2.10
  -1   7  -8   17.10    2.30
   1   7   8   13.80    1.20
  -1  -7   8   14.80    2.00
   1  -7  -8   14.70    2.20
   1  -7  -8   19.10    1.90
   1   7   8   12.40    1.70
  -1  -7   8   13.10    1.90
  -1   7  -8   14.40    2.20
   1  -7  -8   15.10    2.00
  -1   7  -8   15.20    2.20
  -2  -7  -8   21.70    2.40
  -2  -7  -8   18.10    2.70
   2  -7   8   14.40    2.10
   2   7  -8   16.20    2.40
   2   7  -8   19.30    2.60
  -2   7   8   17.40    2.20
  -2   7   8   16.20    1.30
  -2  -7   8   15.40    2.10
   2   7   8   13.50    1.60
  -2   7  -8   12.60    2.10
   2  -7  -8   16.50    1.80
   2  -7  -8   15.00    2.20
  -2   7  -8   14.20    2.30
  -2  -7   8   14.60    2.20
   2  -7  -8   17.80    2.20
   2   7   8   15.00    2.00
  -2   7  -8   13.30    2.20
   3  -7   8   30.80    3.20
  -3  -7  -8   40.00    3.20
   3   7  -8   30.60    3.30
  -3  -7  -8   28.70    3.40
  -3   7   8   29.80    3.40
   3   7  -8   43.50    4.20
   3   7   8   30.50    3.00
  -3  -7   8   26.70    2.90
  -3  -7   8   34.00    3.50
   3  -7  -8   34.20    3.30
   3   7   8   34.00    2.60
   3  -7  -8   33.90    3.50
  -3   7  -8   31.80    3.30
  -3   7  -8   37.20    3.60
  -3   7  -8   34.90    3.60
  -3   7  -8   27.10    3.30
   4   7  -8  111.69    6.50
  -4   7   8  104.59    6.20
  -4  -7  -8  111.29    6.40
   4   7  -8  115.79    6.70
   4   7  -8  118.69    7.20
  -4  -7  -8  100.99    6.90
   4  -7   8  108.99    6.40
   4   7   8  102.99    6.00
  -4  -7   8  113.59    6.70
   4  -7  -8  114.89    6.80
   4   7   8   92.69    6.00
  -4   7  -8  112.19    6.20
  -4   7  -8  118.79    6.90
  -4   7  -8   93.59    6.40
  -4   7  -8  120.89    7.20
  -5   7   8    7.90    1.70
  -5  -7  -8    7.90    2.00
   5   7  -8    8.60    1.90
  -5  -7  -8   12.50    2.20
   5   7  -8   10.80    2.00
   5   7  -8   10.80    2.70
   5  -7   8    9.90    2.00
   5   7   8    7.40    1.70
  -5  -7   8   10.00    2.10
  -5   7  -8    9.20    1.80
   5  -7  -8    8.50    2.10
  -5   7  -8    9.60    2.30
  -5   7  -8   13.20    2.40
  -5   7  -8    8.90    2.10
   5   7   8   11.60    2.20
   6   7  -8   31.20    4.30
  -6  -7  -8   22.20    3.00
  -6  -7  -8   16.90    3.00
   6   7  -8   27.40    3.20
   6  -7   8   21.70    3.00
  -6   7   8   19.30    2.80
   6   7  -8   24.50    3.20
   6  -7  -8   22.10    3.20
  -6   7  -8   28.70    3.50
  -6   7  -8   29.30    3.30
   6   7   8   17.90    2.60
   6   7   8   27.10    3.60
  -6  -7   8   21.90    3.10
  -6   7  -8   30.60    3.70
  -6   7  -8   24.70    3.80
  -7  -7  -8    4.20    2.00
   7  -7   8    5.30    2.00
   7   7  -8    5.50    2.70
  -7  -7  -8    3.80    1.60
   7   7  -8    3.70    1.70
  -7   7   8    3.30    1.50
   7   7   8    6.90    1.90
  -7   7  -8    2.40    1.80
   7   7   8    9.20    2.50
   7  -7  -8    3.80    1.90
  -7   7  -8    1.70    1.50
  -7  -7   8    6.00    2.00
  -7   7  -8    2.90    1.70
  -7   7  -8    2.40    2.30
  -8  -7  -8   55.99    6.00
   8  -7   8   48.40    5.20
   8   7  -8   48.60    5.00
  -8  -7  -8   52.79    6.30
  -8   7   8   67.39    5.20
  -8   7  -8   58.99    5.60
  -8   7  -8   55.99    6.40
  -8   7  -8   55.39    5.60
  -8  -7   8   51.99    5.80
  -8   7  -8   54.39    5.30
   8   7   8   58.59    6.20
   8   7   8   52.69    5.30
   8  -7  -8   52.99    5.70
  -9  -7  -8   24.30    4.10
   9  -7   8   22.20    4.00
  -9   7   8   23.40    3.80
   9   7  -8   22.80    3.50
  -9  -7   8   27.60    4.30
   9  -7  -8   19.40    3.60
   9   7   8   25.50    4.90
   9   7   8   22.50    3.70
  -9   7  -8   29.30    4.10
   0  -8  -8   90.39    5.30
   0   8  -8   77.79    5.30
   0  -8   8   83.49    5.00
   0  -8  -8   82.49    5.50
   0   8  -8   80.19    5.50
   0  -8  -8   89.19    5.00
   0  -8   8   73.89    4.90
   0  -8  -8   92.29    5.10
   0   8  -8   92.09    5.60
   1  -8   8   29.00    2.70
   1   8  -8   33.90    3.60
   1   8  -8   33.20    3.60
   1   8  -8   30.60    3.30
  -1  -8  -8   35.00    3.00
  -1  -8  -8   25.90    3.20
   1  -8   8   30.20    3.10
  -1   8  -8   31.20    3.40
  -1   8  -8   30.80    3.30
   1  -8  -8   39.40    3.30
   1  -8  -8   39.30    2.80
  -1   8  -8   33.60    3.60
   1   8   8   26.60    1.80
   1  -8  -8   35.20    3.00
   1   8   8   29.70    2.80
  -1  -8   8   30.00    3.10
   1  -8  -8   35.70    3.00
  -1  -8   8   33.10    3.00
   2   8  -8    9.10    1.90
  -2   8   8    7.00    0.90
  -2  -8  -8    7.80    1.60
  -2  -8  -8    5.80    1.80
  -2   8   8    6.80    1.60
   2   8  -8    4.60    1.50
   2  -8   8    8.30    1.70
   2  -8  -8    5.50    1.50
  -2   8  -8    4.10    1.40
   2   8   8    5.20    1.30
  -2  -8   8    6.50    1.60
  -2  -8   8    4.30    1.50
   2  -8  -8    9.70    1.80
   2   8   8    4.40    1.00
  -2   8  -8    5.00    1.50
  -2   8  -8    4.90    1.70
   3  -8   8   77.09    5.30
  -3  -8  -8   91.89    5.50
   3   8  -8   92.69    5.80
   3   8  -8   83.89    5.90
  -3  -8  -8   84.69    5.90
  -3   8   8   91.29    5.30
   3  -8  -8   88.29    5.50
  -3   8  -8   90.09    6.00
  -3   8  -8   93.49    5.90
  -3  -8   8   69.59    5.30
  -3   8  -8   79.99    5.70
   3  -8  -8   87.49    5.60
  -3  -8   8   80.69    5.20
   3   8   8   79.59    5.00
   3   8   8   79.79    4.70
   4   8  -8   41.10    4.00
   4   8  -8   46.40    4.60
  -4  -8  -8   42.70    3.60
  -4   8   8   42.20    3.50
  -4  -8  -8   42.40    4.70
   4   8  -8   42.00    3.60
   4  -8   8   42.00    4.10
   4  -8  -8   43.00    3.80
  -4   8  -8   47.80    4.80
   4   8   8   42.20    3.40
  -4   8  -8   49.20    4.00
  -4  -8   8   37.60    4.20
   4   8   8   36.60    3.70
  -4   8  -8   34.20    4.00
  -5  -8  -8   24.00    3.50
   5   8  -8   19.20    3.40
   5  -8   8   13.70    2.40
   5   8  -8   23.40    3.00
  -5   8   8   20.80    2.90
   5   8  -8   24.90    3.20
  -5  -8  -8   21.80    2.90
  -5   8  -8   22.30    3.40
  -5  -8   8   14.60    2.80
   5   8   8   18.60    2.90
  -5   8  -8   22.60    3.20
   5  -8  -8   21.30    3.10
  -5   8  -8   25.50    3.30
  -5   8  -8   17.60    2.70
   5   8   8   19.60    2.60
  -6  -8  -8   32.60    3.80
  -6  -8  -8   32.80    4.40
   6   8  -8   33.40    3.80
   6   8  -8   38.20    4.90
  -6   8   8   31.30    3.70
   6  -8   8   26.50    3.60
   6  -8  -8   27.60    3.80
  -6   8  -8   31.00    4.00
  -6   8  -8   28.40    3.90
   6   8   8   27.70    3.90
  -6   8  -8   35.50    3.80
  -6   8  -8   33.10    4.60
  -6  -8   8   32.80    4.30
   6   8   8   29.50    3.50
  -7  -8  -8    3.40    2.00
   7   8  -8    1.40    2.60
  -7   8   8   -0.10    1.30
   7   8  -8    3.30    1.80
   7  -8   8    1.20    1.60
   7   8   8   -0.90    1.90
   7  -8  -8    1.10    1.60
  -7   8  -8    0.30    1.60
  -7   8  -8    2.50    1.90
  -7   8  -8    1.10    1.50
   7   8   8    3.00    1.60
  -7  -8   8   -0.80    1.40
  -7   8  -8    5.10    2.50
  -8  -8  -8    8.00    2.80
   8   8  -8   11.00    2.70
  -8   8   8   14.10    2.90
   8  -8   8   12.20    2.90
   8   8   8   12.60    3.40
  -8   8  -8   13.30    2.90
  -8   8  -8   13.10    3.60
  -8  -8   8   13.10    3.10
   8   8   8   13.40    2.70
   8  -8  -8   11.50    2.70
  -8   8  -8   13.00    3.00
  -8   8  -8   14.00    3.10
  -9   8   8    7.80    2.50
   9  -8   8    9.40    3.10
   9   8  -8   12.10    3.00
  -9  -8  -8    5.60    2.50
  -9   8  -8    8.90    4.80
   9  -8  -8    6.40    2.20
  -9  -8   8    5.20    2.30
   9   8   8    6.90    2.20
   9   8   8    7.10    3.50
  -9   8  -8    7.10    3.20
  -9   8  -8    3.90    2.60
  -9   8  -8    3.30    2.20
   0   9  -8    0.40    1.00
   0  -9   8    0.00    0.80
   0   9  -8    0.80    1.30
   0  -9  -8   -1.10    0.80
   0  -9  -8    0.20    1.00
   0  -9   8   -0.30    0.90
   0  -9  -8    0.20    1.10
   0  -9  -8    0.30    1.20
   0   9  -8    0.20    1.00
   1   9  -8    5.50    1.70
  -1  -9  -8    5.70    1.80
   1  -9   8    8.30    1.80
   1   9  -8    7.80    2.00
  -1  -9  -8    7.30    1.70
   1   9  -8    5.70    1.80
  -1  -9   8    3.20    1.40
   1  -9  -8   10.30    2.10
  -1   9  -8    6.60    1.80
   1  -9  -8    9.10    1.70
  -1  -9   8    4.30    1.50
  -1   9  -8    5.70    1.70
  -1   9  -8    5.80    1.80
   1  -9  -8    4.10    1.40
   1  -9  -8    5.50    1.50
   1   9   8    6.00    0.90
   1   9   8    4.90    1.50
  -2  -9  -8   46.40    4.20
  -2  -9  -8   46.80    3.60
   2   9  -8   50.09    4.20
   2  -9   8   46.80    3.70
  -2   9   8   40.00    2.30
   2   9  -8   48.10    4.00
  -2  -9   8   41.70    3.80
   2  -9  -8   40.70    3.60
   2   9   8   46.40    2.80
  -2   9  -8   32.40    3.80
   2  -9  -8   47.30    3.70
  -2  -9   8   46.00    4.30
   2   9   8   38.40    3.30
  -2   9  -8   44.30    4.30
  -2   9  -8   32.70    3.90
  -3  -9  -8    7.30    2.20
   3   9  -8    7.50    1.80
  -3   9   8    6.20    1.60
   3  -9   8   13.50    2.40
  -3  -9  -8    9.30    1.90
   3   9  -8    7.70    2.20
  -3   9  -8    4.90    1.90
   3  -9  -8    6.90    1.90
  -3  -9   8   10.20    2.10
  -3  -9   8    6.50    1.90
   3   9   8    8.80    1.80
  -3   9  -8    8.80    2.20
   3   9   8    7.10    1.40
  -3   9  -8    8.20    2.20
   4   9  -8   48.20    5.10
  -4  -9  -8   49.70    4.60
   4  -9   8   40.20    4.30
   4   9  -8   48.30    4.20
  -4  -9  -8   44.10    4.40
  -4   9   8   39.30    4.00
   4   9  -8   44.30    4.40
   4  -9  -8   50.09    4.90
  -4  -9   8   43.90    4.00
   4   9   8   40.70    3.90
  -4   9  -8   55.89    4.60
   4   9   8   37.00    3.70
  -4   9  -8   52.09    5.00
  -4   9  -8   48.50    5.10
  -5  -9  -8    7.10    2.10
  -5   9   8    3.20    1.50
   5   9  -8    2.40    2.10
   5   9  -8    5.30    1.80
   5  -9   8    6.00    1.80
  -5   9  -8    6.60    2.40
  -5   9  -8    4.30    1.80
   5   9   8    3.10    1.40
  -5  -9   8    7.20    2.30
  -5   9  -8    6.60    2.00
   5  -9  -8    4.70    1.80
   5   9   8    3.90    1.80
  -6   9   8   26.30    3.40
   6  -9   8   22.20    3.40
  -6  -9  -8   30.00    4.40
   6   9  -8   32.70    4.70
   6   9  -8   29.70    3.90
  -6   9  -8   40.90    4.90
  -6   9  -8   33.20    4.10
   6   9   8   28.90    3.90
   6  -9  -8   29.20    4.00
  -6   9  -8   31.30    4.20
  -6  -9   8   20.30    3.50
   6   9   8   36.00    3.90
  -7   9   8   43.00    4.80
   7   9  -8   54.89    6.20
   7   9  -8   37.80    4.60
  -7  -9  -8   50.09    5.80
   7  -9   8   48.20    5.00
  -7  -9   8   43.20    5.30
  -7   9  -8   44.50    5.00
  -7   9  -8   48.30    5.30
   7  -9  -8   43.70    5.30
   7   9   8   43.60    5.30
   7   9   8   48.90    5.00
  -7   9  -8   51.49    5.90
   8  -9   8    9.30    2.90
  -8   9   8   12.60    3.00
   8   9  -8   12.70    2.70
  -8  -9  -8   13.20    3.30
   8  -9  -8    8.50    2.50
   8   9   8   12.30    2.60
  -8   9  -8   15.40    3.30
  -8  -9   8   11.70    2.90
  -8   9  -8   10.50    3.00
   8   9   8    9.90    3.30
  -8   9  -8    8.70    2.90
  -8   9  -8   13.50    3.90
   0 -10  -8   10.30    2.30
   0 -10  -8   10.10    1.90
   0  10  -8    7.10    2.00
   0 -10   8   12.30    2.30
   0 -10  -8    9.10    1.90
   0  10  -8    9.90    2.30
   0 -10   8    7.70    2.00
   0  10  -8    9.70    2.20
   1  10  -8   29.80    3.60
   1 -10   8   34.10    3.80
  -1 -10  -8   35.70    3.50
   1  10  -8   32.80    3.80
   1  10  -8   31.30    3.90
  -1 -10  -8   39.80    4.40
  -1 -10   8   31.50    3.70
   1 -10  -8   34.10    3.80
   1 -10  -8   31.70    3.50
   1 -10  -8   39.00    3.80
  -1  10  -8   33.80    3.70
  -1  10  -8   32.80    3.90
  -1 -10   8   41.60    3.70
   1  10   8   37.50    3.60
   1  10   8   31.80    2.10
  -1  10  -8   32.40    3.70
  -2 -10  -8   45.30    4.80
   2 -10   8   42.60    4.20
   2  10  -8   34.50    4.10
  -2 -10  -8   42.80    4.60
   2  10  -8   46.60    4.60
   2 -10  -8   33.30    3.80
  -2 -10   8   36.10    4.00
   2  10   8   34.20    3.50
  -2  10  -8   30.20    4.00
  -2  10  -8   33.50    3.90
   2 -10  -8   40.80    4.00
  -2  10  -8   41.20    4.30
  -2 -10   8   29.50    3.50
   2  10   8   33.40    2.50
  -3  10   8    3.60    1.40
   3  10  -8    4.40    1.90
  -3 -10  -8    3.20    1.80
   3 -10   8    2.20    1.50
   3  10  -8    2.90    1.70
  -3  10  -8    3.10    1.70
  -3  10  -8    2.20    1.50
  -3  10  -8    2.70    1.50
  -3 -10   8    5.80    2.00
   3  10   8    1.80    1.30
  -3 -10   8    3.00    1.40
   3 -10  -8    3.40    1.70
   3  10   8    4.10    1.30
   4  10  -8   32.40    4.00
   4  10  -8   37.10    4.50
  -4  10   8   30.90    3.60
  -4 -10  -8   34.00    4.40
   4 -10   8   23.50    3.30
   4  10  -8   32.20    4.00
  -4 -10   8   29.50    4.00
  -4  10  -8   33.20    4.30
   4  10   8   27.90    3.40
   4 -10  -8   27.70    3.80
   4  10   8   30.10    3.30
  -4  10  -8   33.00    4.20
  -4  10  -8   33.60    4.10
  -5  10   8    5.50    1.70
   5  10  -8    8.80    2.80
   5 -10   8    5.30    2.10
   5  10  -8    8.10    2.30
  -5 -10  -8    3.40    2.10
  -5 -10   8    6.00    2.10
   5 -10  -8    5.30    2.20
   5  10   8    5.00    2.00
  -5  10  -8    5.80    2.50
  -5  10  -8    5.10    2.30
   5  10   8    8.00    2.00
  -5  10  -8    4.30    2.30
   6  10  -8   12.80    2.70
   6 -10   8   18.80    3.10
   6  10  -8   18.30    3.90
  -6 -10  -8    9.60    2.70
  -6  10   8   15.30    2.90
   6  10   8   18.60    3.10
  -6 -10   8   20.00    3.80
  -6  10  -8   16.70    3.30
  -6  10  -8   13.30    3.10
   6  10   8    7.80    2.60
   6 -10  -8    9.90    2.80
  -6  10  -8   15.30    3.40
  -7  10   8    5.40    2.00
   7 -10   8    2.30    2.00
  -7 -10  -8    5.00    2.50
   7  10  -8    4.40    2.10
   7  10  -8    3.00    2.90
   7  10   8    1.50    2.40
  -7  10  -8    6.60    2.80
   7 -10  -8    1.90    2.10
   7  10   8    6.10    2.30
  -7 -10   8    0.90    1.80
  -7  10  -8    8.40    2.60
  -7  10  -8    1.70    2.80
   8  10  -8   15.80    3.30
  -8 -10  -8   11.00    3.40
   8 -10   8   10.50    3.20
  -8  10   8    7.30    2.80
  -8  10  -8   13.20    3.90
   8  10   8    4.90    2.20
  -8 -10   8    6.90    2.90
  -8  10  -8   10.30    3.40
   8 -10  -8   12.10    3.30
   8  10   8    6.40    3.70
  -8  10  -8    5.60    3.80
   0 -11   8    0.30    1.40
   0 -11  -8    1.00    1.60
   0 -11  -8    0.70    1.60
   0  11  -8   -1.30    1.20
   0  11  -8    1.20    1.60
   0  11  -8    0.20    1.40
   1  11  -8    1.30    1.60
   1 -11   8    3.20    1.70
   1  11  -8    1.40    1.60
   1  11  -8    1.00    1.60
  -1 -11  -8    0.10    1.60
   1 -11  -8    2.50    1.80
   1 -11  -8    0.80    1.40
  -1 -11   8   -0.60    1.40
  -1  11  -8    1.20    1.50
   1  11   8    0.70    1.20
   1  11   8    1.90    0.80
  -1  11  -8    1.50    1.50
  -1  11  -8    1.70    1.50
  -1 -11   8    0.10    1.30
  -2  11   8    0.10    1.10
   2 -11   8    0.90    1.50
   2  11  -8    2.70    1.90
   2  11  -8    1.70    1.70
  -2 -11  -8    2.80    1.70
   2 -11  -8    0.30    1.30
  -2  11  -8    2.90    1.80
   2  11   8   -1.60    1.10
   2  11   8    0.90    0.80
  -2 -11   8    0.90    1.20
  -2 -11   8   -0.60    1.50
  -2  11  -8    1.30    1.70
  -2  11  -8    0.70    1.80
   3  11  -8   10.40    2.70
   3  11  -8   16.50    3.10
  -3 -11  -8    8.40    2.60
   3 -11   8   13.00    2.60
  -3  11   8   15.10    2.60
   3  11   8   13.50    2.10
  -3  11  -8   13.40    2.70
   3 -11  -8   13.00    2.70
  -3 -11   8   17.30    3.10
   3  11   8   19.60    2.90
  -3 -11   8   11.90    2.60
  -3  11  -8   18.70    3.30
  -3  11  -8   10.50    2.60
  -4 -11  -8    3.30    2.10
   4 -11   8    3.00    1.70
   4  11  -8    3.40    2.20
   4  11  -8    1.80    1.50
  -4  11   8    2.10    1.30
  -4  11  -8    2.00    2.10
   4  11   8   -0.50    1.30
  -4 -11   8    2.30    2.10
   4 -11  -8    4.80    2.00
  -4  11  -8    4.30    2.20
  -4  11  -8    4.40    2.20
   4  11   8    1.60    1.30
  -5  11   8   38.90    4.40
  -5 -11  -8   38.90    5.30
   5 -11   8   48.30    5.10
   5  11  -8   30.90    4.20
   5  11  -8   45.50    5.60
   5 -11  -8   40.50    4.90
  -5 -11   8   33.30    4.70
  -5  11  -8   40.20    5.00
   5  11   8   33.50    4.10
   5  11   8   40.80    4.50
  -5  11  -8   38.90    5.00
  -5  11  -8   43.30    5.30
   6  11  -8    1.50    2.80
  -6  11   8    0.30    1.50
   6 -11   8    1.20    2.00
  -6 -11  -8    2.00    2.20
   6  11  -8   -1.40    1.50
   6  11   8    1.50    1.60
  -6  11  -8    7.20    3.10
   6 -11  -8    1.60    2.00
  -6  11  -8    0.70    2.20
   6  11   8    1.00    2.20
  -6  11  -8    1.50    2.10
  -6 -11   8    1.20    2.00
   7  11  -8   43.60    5.30
   7 -11   8   49.20    5.50
   7  11  -8   41.70    6.30
  -7 -11  -8   43.60    5.70
  -7  11   8   44.30    5.30
  -7  11  -8   41.20    5.60
  -7  11  -8   51.19    6.90
   7  11   8   41.80    5.00
   7 -11  -8   53.29    6.20
  -7 -11   8   34.30    5.50
   7  11   8   45.20    5.80
  -7  11  -8   50.79    6.20
   0 -12   8   21.20    3.30
   0  12  -8   21.50    3.60
   0 -12  -8   22.90    3.90
   0  12  -8   23.40    3.70
   0  12  -8   23.00    3.40
   1 -12   8    4.10    2.00
  -1 -12  -8    6.20    2.50
   1  12  -8    5.30    2.10
   1  12  -8    3.40    1.90
   1  12  -8    7.30    2.40
   1  12   8    5.10    1.00
  -1  12  -8    8.60    2.50
  -1  12  -8    3.30    1.70
  -1  12  -8    4.50    1.90
  -1 -12   8    5.10    2.00
   1  12   8    2.00    1.70
   2  12  -8   16.40    3.30
   2  12  -8   10.10    2.60
  -2 -12  -8   10.50    2.70
   2 -12   8    8.00    2.40
  -2 -12   8   17.20    3.20
   2  12   8    9.60    1.60
   2 -12  -8    5.10    2.30
  -2  12  -8   10.50    2.70
   2  12   8    9.50    2.30
  -2 -12   8    5.40    2.20
  -2  12  -8   12.10    2.80
  -2  12  -8    6.40    2.40
   3 -12   8    1.10    1.70
  -3  12   8    5.30    1.90
   3  12  -8    5.30    2.40
  -3 -12  -8    2.30    2.30
   3  12  -8    7.00    2.50
  -3  12  -8    5.10    2.10
  -3  12  -8    4.70    2.20
  -3 -12   8    4.20    1.80
  -3  12  -8    6.60    2.20
   3  12   8    5.90    1.60
   3  12   8    5.20    2.10
  -3 -12   8    4.50    2.10
   3 -12  -8   -0.60    1.50
   4  12  -8    9.70    3.10
   4  12  -8    6.30    2.50
   4 -12   8    9.60    2.60
  -4 -12  -8    8.80    2.90
  -4  12   8   10.70    2.60
  -4  12  -8   11.30    2.80
  -4 -12   8    9.10    2.80
   4  12   8   12.10    2.40
  -4  12  -8    5.70    2.60
  -4  12  -8    9.80    2.80
   4 -12  -8    9.70    2.80
   4  12   8    8.30    2.40
  -5  12   8    4.40    2.10
   5  12  -8    1.40    2.00
  -5 -12  -8    4.60    3.00
   5  12  -8    6.10    3.30
   5 -12   8    2.60    1.90
  -5  12  -8    4.60    2.90
   5 -12  -8    4.80    2.40
  -5  12  -8    0.10    2.20
   5  12   8    0.90    1.60
  -5  12  -8    2.70    2.40
   5  12   8    3.40    1.80
  -5 -12   8    3.80    2.80
   6  12  -8    0.00    2.20
   6 -12   8    2.10    2.70
   6  12  -8    0.10    3.20
  -6 -12  -8    1.50    3.20
  -6  12   8    2.50    1.90
   6  12   8    2.20    1.80
   6 -12  -8   -0.50    2.50
  -6  12  -8    2.70    2.90
   6  12   8    1.90    2.70
  -6 -12   8   -0.10    2.70
  -6  12  -8    2.90    3.40
  -6  12  -8    5.90    3.40
   0  13  -8    0.40    2.00
   0  13  -8   -0.70    1.60
   0 -13   8   -0.10    1.80
   0  13  -8    1.40    1.70
  -1 -13  -8    6.00    2.70
   1  13  -8    7.40    2.60
   1 -13   8    6.80    2.40
   1  13  -8    2.70    2.10
   1  13  -8    1.30    2.10
  -1  13  -8    5.10    2.40
  -1  13  -8    0.50    2.00
  -1  13  -8    2.40    2.20
   1  13   8    3.90    1.10
  -1 -13   8    7.10    2.10
   2 -13   8    1.80    2.10
   2  13  -8   -2.00    1.90
  -2 -13  -8    4.30    2.50
   2  13  -8    0.50    2.20
   2  13   8    2.60    1.20
  -2 -13   8    3.60    3.00
   2  13   8   -0.60    1.80
  -2  13  -8    3.70    2.30
  -2 -13   8    5.00    1.90
  -2  13  -8    2.90    1.90
  -2  13  -8    5.20    2.40
  -3 -13  -8    7.10    2.90
   3  13  -8    3.30    2.90
   3 -13   8    4.80    2.40
   3  13   8    6.20    2.40
  -3 -13   8    7.00    2.20
  -3  13  -8    3.10    1.80
  -3  13  -8    3.90    2.40
   3 -13  -8    8.70    2.70
  -3  13  -8    7.40    2.70
  -3 -13   8    4.50    2.50
   3  13   8    5.20    1.60
  -4 -13  -8    5.90    3.20
   4  13  -8    7.90    3.30
   4  13  -8    5.90    2.70
   4 -13   8    8.90    2.90
   4  13   8    7.60    2.10
   4  13   8    7.00    2.40
  -4  13  -8    3.30    2.10
   4 -13  -8   13.30    3.20
  -4 -13   8   10.10    3.20
  -4  13  -8   12.60    3.60
  -4  13  -8    3.50    2.10
   0  14  -8   23.60    4.00
   0  14  -8   17.60    3.60
   0 -14   8   21.00    4.10
   0  14  -8   24.30    3.80
   1  14  -8   28.40    4.70
   1  14  -8   29.60    4.70
   1 -14   8   26.70    4.30
   1  14  -8   26.40    4.50
  -1 -14   8   22.30    3.60
  -1  14  -8   20.70    3.60
  -1  14  -8   30.50    4.60
  -1  14  -8   20.20    4.00
  -2 -14  -8    7.20    3.40
   2  14  -8    5.70    3.40
   2 -14   8    6.30    3.00
  -2  14  -8    2.50    2.10
  -2 -14   8    2.50    2.00
  -2  14  -8    6.70    2.70
   2  14   8    4.40    1.40
  -2  14  -8    2.90    2.40
   0   0   9    0.30    0.30
   0   0   9    0.20    0.60
   0   0  -9   -0.30    0.40
   0   0  -9    0.30    0.40
   0   0   9    1.40    0.70
   1   0   9    0.10    0.60
   1   0   9   -0.30    0.60
   1   0  -9   -0.30    0.40
   1   0   9    0.20    0.40
   1   0  -9   -0.10    0.40
  -1   0  -9    0.00    0.40
  -1   0   9    1.10    0.60
  -1   0   9    0.00    0.70
  -1   0  -9   -0.40    0.50
   2   0   9 1890.31   82.89
  -2   0   9 1972.90   83.19
  -2   0   9 2049.99   83.19
   2   0   9 1920.71   83.19
  -2   0  -9 2082.99   83.09
   2   0  -9 1895.21   83.49
  -2   0  -9 1934.51   83.39
   2   0  -9 1999.90   83.29
   2   0   9 1987.90   82.69
  -3   0  -9   -0.10    0.50
   3   0   9   -0.20    0.60
   3   0  -9   -0.20    0.50
   3   0  -9    0.10    0.50
  -3   0   9    0.10    0.60
   3   0   9   -0.50    0.70
  -3   0  -9    0.50    1.20
  -3   0  -9    0.10    0.40
  -3   0  -9    0.30    0.50
   3   0  -9   -0.20    0.40
   3   0   9   -0.70    0.60
   4   0   9   10.90    1.60
  -4   0  -9   12.00    1.30
  -4   0   9   10.40    1.50
   4   0   9    8.70    1.90
   4   0   9    8.70    1.40
  -4   0   9   10.70    1.60
   4   0  -9   13.20    1.20
  -4   0  -9   14.70    2.40
  -4   0  -9   15.30    1.40
   4   0  -9   10.10    1.70
  -4   0  -9   12.30    1.80
   5   0  -9    0.00    0.60
  -5   0  -9   -0.10    0.70
   5   0  -9   -0.30    0.70
   5   0   9   -0.50    1.00
   5   0   9    0.00    0.80
   5   0   9   -0.10    0.70
  -5   0   9   -0.20    0.70
  -5   0   9    0.00    0.70
   6   0  -9   33.80    3.50
  -6   0   9   39.10    3.00
   6   0   9   35.70    3.50
  -6   0   9   33.20    3.10
  -6   0  -9   32.00    3.30
   7   0  -9    1.30    1.10
  -7   0   9    2.10    1.30
  -7   0  -9   -0.30    1.00
   7   0   9    2.10    1.20
  -7   0   9    0.10    1.10
   8   0  -9    6.00    1.70
  -8   0   9    9.50    2.10
   8   0   9    3.50    1.50
  -8   0  -9    5.30    1.90
  -9   0  -9    1.70    1.80
  -9   0   9    0.00    1.30
   9   0  -9    1.10    1.40
   9   0   9    1.90    1.50
  10   0  -9   83.59    8.50
  10   0   9   85.99    6.70
 -10   0  -9   72.49    6.10
 -10   0   9   81.89    6.30
  11   0   9   -0.50    2.60
 -11   0  -9    2.50    2.90
   0   1  -9 1069.39   45.30
   0  -1   9 1046.00   43.80
   0  -1   9 1037.60   43.20
   0   1   9 1006.10   43.70
   0   1  -9 1079.19   45.10
   0   1   9  999.30   43.90
   0  -1  -9 1066.29   45.20
   0  -1  -9 1043.00   45.30
   0  -1   9 1031.00   43.90
   1  -1   9  423.76   19.70
   1   1  -9  375.06   19.10
   1   1  -9  439.36   18.90
   1  -1   9  458.35   19.50
  -1   1   9  447.66   19.80
   1   1  -9  442.76   19.50
  -1   1   9  447.86   20.00
   1  -1   9  468.95   20.10
  -1  -1  -9  442.46   19.30
  -1  -1  -9  458.05   18.90
  -1   1  -9  435.56   19.00
  -1  -1   9  465.65   20.00
  -1   1  -9  428.76   19.10
  -1   1  -9  465.25   19.60
  -1  -1   9  465.75   19.20
  -1  -1   9  455.25   20.10
   1  -1  -9  446.86   19.20
   1   1   9  403.76   19.80
   1   1   9  436.36   19.90
   1  -1  -9  438.36   19.10
   1   1   9  469.35   19.30
  -2  -1  -9    2.30    0.80
   2   1  -9    0.80    0.60
   2   1  -9    1.20    0.60
   2  -1   9    1.00    0.60
  -2   1   9    0.80    0.80
   2  -1   9    0.50    0.60
   2   1  -9    1.80    1.00
  -2  -1  -9    0.40    0.50
   2  -1   9    1.70    0.90
  -2   1   9    1.70    0.80
  -2  -1   9    0.80    0.70
   2  -1  -9    0.10    0.50
   2   1   9    0.70    0.60
  -2   1  -9    0.80    1.00
  -2   1  -9    0.90    0.50
  -2   1  -9    0.20    0.50
   2  -1  -9    0.70    0.60
   2   1   9    0.50    0.50
  -2  -1   9    1.60    0.40
  -2   1  -9    0.10    0.40
   2   1   9    1.30    0.80
  -3   1   9  598.34   25.40
  -3  -1  -9  549.45   24.10
   3   1  -9  521.35   24.20
  -3  -1  -9  545.05   23.30
   3  -1   9  602.44   25.70
   3   1  -9  564.14   24.50
   3   1  -9  576.34   23.40
   3  -1   9  566.14   25.10
   3  -1   9  570.64   25.10
  -3   1  -9  553.14   23.70
   3   1   9  568.74   25.10
  -3   1  -9  545.85   23.60
  -3   1  -9  584.84   24.60
   3  -1  -9  496.55   24.10
  -3  -1   9  571.54   24.80
   3  -1  -9  538.95   24.00
   3   1   9  591.84   25.30
  -3  -1   9  538.15   25.30
   3   1   9  572.04   25.60
  -3   1  -9  556.04   24.10
  -4  -1  -9   22.50    2.30
  -4  -1  -9   24.80    2.30
   4   1  -9   26.10    1.80
   4   1  -9   31.50    3.20
  -4   1   9   22.80    2.50
   4  -1   9   27.50    2.30
  -4   1   9   20.40    2.20
   4  -1   9   27.80    2.10
   4   1  -9   26.90    2.70
  -4   1  -9   26.10    3.00
   4   1   9   28.00    3.10
   4   1   9   26.00    2.50
  -4  -1   9   26.00    2.00
   4  -1  -9   19.00    2.30
  -4   1  -9   20.40    1.80
  -4   1  -9   25.20    1.90
   4  -1  -9   26.00    1.70
  -4  -1   9   26.20    2.40
  -4   1  -9   24.00    2.40
   5   1  -9  153.28    7.50
  -5   1   9  150.98    8.00
  -5  -1  -9  160.78    8.20
  -5   1   9  158.58    8.20
  -5  -1  -9  150.38    8.20
   5  -1   9  177.68    9.00
   5  -1   9  152.58    8.20
   5  -1   9  160.28    7.90
   5   1  -9  157.18    8.20
  -5   1  -9  166.68    7.70
   5  -1  -9  147.99    8.20
  -5  -1   9  155.28    8.40
   5   1   9  156.88    8.80
  -5   1  -9  147.39    8.10
  -5   1  -9  166.18    7.60
  -5   1  -9  166.48    9.00
   5   1   9  160.98    8.20
  -5  -1   9  160.08    7.90
   6   1  -9    7.20    1.70
   6  -1   9    3.40    1.30
  -6  -1  -9    5.70    1.60
  -6  -1  -9    6.30    1.50
  -6   1   9    7.20    1.60
  -6   1   9    9.20    1.70
   6   1   9    9.90    2.40
   6  -1  -9    6.00    1.60
  -6   1  -9    7.50    1.70
  -6  -1   9    6.80    1.60
   6   1   9    6.60    1.60
  -6  -1   9    9.40    1.70
   7  -1   9   70.49    4.90
   7   1  -9   64.69    4.50
  -7  -1  -9   66.79    4.70
  -7   1   9   70.59    4.80
   7  -1  -9   57.29    4.50
  -7   1  -9   62.39    4.50
  -7  -1   9   64.69    4.80
   7   1   9   67.39    4.80
  -7  -1   9   67.49    4.60
  -8   1   9    4.20    1.60
   8  -1   9    4.00    1.80
   8   1  -9    4.20    1.40
  -8  -1  -9    4.10    1.80
  -8  -1   9    4.70    2.10
   8  -1  -9    1.20    1.40
   8   1   9    2.50    1.40
  -8  -1   9    2.80    1.50
  -8   1  -9    1.10    1.10
  -9  -1  -9   31.40    4.00
  -9   1   9   35.30    4.10
   9  -1   9   26.20    3.70
   9   1  -9   25.70    3.60
  -9  -1   9   33.70    4.00
   9   1   9   36.40    4.40
   9  -1  -9   27.20    3.70
  -9   1  -9   35.80    4.30
 -10  -1  -9   21.40    3.60
  10  -1   9   25.70    4.00
 -10   1   9   23.90    3.90
  10  -1  -9   23.00    3.70
 -10   1  -9   22.50    3.90
  10   1   9   22.80    3.80
 -11   1   9    1.10    2.50
  11  -1   9    7.10    3.20
 -11  -1  -9    3.50    2.90
  11   1   9    1.00    2.80
 -11   1  -9    0.50    3.00
   0   2  -9    0.40    0.70
   0   2  -9    0.20    0.60
   0  -2  -9    0.00    0.40
   0  -2   9    0.50    0.90
   0  -2   9    0.10    0.50
   0   2  -9    0.50    0.40
   0   2   9    0.30    0.50
   0   2   9    0.70    0.60
   0   2   9    0.30    0.40
   0  -2   9   -0.20    0.40
   0  -2  -9    0.90    0.60
   1  -2   9  145.99    7.10
   1   2  -9  140.69    7.00
  -1   2   9  123.79    6.80
   1  -2   9  129.89    6.70
  -1  -2  -9  142.59    7.00
   1   2  -9  152.38    7.40
  -1  -2  -9  135.29    6.50
  -1   2   9  134.99    6.70
   1  -2   9  140.49    6.60
   1   2  -9  143.69    6.50
   1  -2  -9  142.29    6.90
  -1  -2   9  137.89    6.40
  -1   2  -9  146.39    6.70
   1  -2  -9  133.39    6.90
  -1  -2   9  142.29    7.00
  -1   2  -9  142.69    7.30
   1   2   9  133.69    6.70
  -1   2  -9  135.09    6.90
  -1   2  -9  147.99    6.90
   1   2   9  140.29    7.00
   1   2   9  140.49    6.30
  -1  -2   9  131.89    6.90
   2   2  -9  267.37   12.10
   2  -2   9  244.08   11.50
   2   2  -9  252.87   11.10
  -2  -2  -9  271.07   11.00
  -2  -2  -9  225.78   11.80
   2  -2   9  236.28   10.90
   2  -2   9  239.98   10.90
  -2  -2  -9  242.18   11.60
  -2   2   9  232.58   11.20
  -2   2   9  238.98   11.10
   2   2  -9  250.07   11.80
  -2   2  -9  246.68   11.40
  -2  -2   9  238.78   10.60
   2  -2  -9  246.98   11.60
   2   2   9  246.38   11.20
  -2   2  -9  246.98   12.10
  -2   2  -9  254.37   11.60
  -2   2  -9  262.27   11.50
  -2  -2   9  213.78   11.10
   2   2   9  252.57   10.80
   2   2   9  240.18   11.30
   2  -2  -9  252.37   11.70
  -3  -2  -9  112.09    6.10
   3  -2   9  111.99    6.20
  -3  -2  -9  106.79    5.80
  -3   2   9  104.39    5.80
   3   2  -9  113.89    6.00
   3   2  -9  119.39    6.30
   3  -2   9  108.39    5.70
   3  -2   9  112.39    5.50
   3   2  -9  113.19    5.40
  -3   2  -9  106.49    5.50
  -3  -2   9  114.99    6.10
   3  -2  -9  106.59    5.70
  -3   2  -9  110.89    5.70
  -3  -2   9  108.19    5.20
  -3   2  -9  122.09    6.50
   3   2   9  105.59    5.60
   3   2   9  103.69    6.00
  -3   2  -9  112.39    5.70
   3  -2  -9   92.29    5.70
  -4   2   9   12.30    1.70
  -4  -2  -9   13.20    1.80
   4   2  -9   17.30    1.60
   4  -2   9   15.10    1.60
   4  -2   9   19.20    2.70
   4   2  -9   13.70    2.20
   4   2  -9   16.70    2.10
  -4   2   9   15.00    2.00
   4  -2   9    9.50    1.60
  -4  -2  -9   10.30    1.70
  -4   2  -9   15.30    1.80
   4   2   9   15.00    2.40
  -4   2  -9   10.50    1.60
  -4  -2   9   14.40    2.10
   4   2   9   11.40    1.70
   4  -2  -9   13.80    1.90
  -4  -2   9   16.00    1.60
  -4   2  -9   15.80    1.70
  -4   2  -9   14.00    2.40
  -5  -2  -9   74.29    4.60
   5  -2   9   77.29    4.60
  -5   2   9   67.99    4.40
  -5   2   9   67.99    4.30
   5   2  -9   64.49    4.40
  -5  -2  -9   68.69    4.50
   5   2  -9   71.49    4.00
  -5   2  -9   79.29    5.30
   5  -2  -9   63.39    4.40
  -5   2  -9   65.29    4.40
   5   2   9   68.19    5.10
  -5   2  -9   72.59    4.10
  -5  -2   9   72.69    4.10
   5   2   9   68.49    4.40
  -5  -2   9   71.49    4.70
  -5   2  -9   71.69    4.20
   6   2  -9  161.68    7.70
  -6   2   9  161.88    8.70
  -6  -2  -9  150.88    8.20
   6   2  -9  141.69    8.20
  -6  -2  -9  158.08    8.40
  -6   2   9  179.18    8.80
   6  -2   9  161.38    8.80
   6   2   9  165.48    9.50
  -6   2  -9  152.98    8.30
  -6  -2   9  152.28    8.90
   6   2   9  163.98    8.80
  -6  -2   9  176.28    8.40
   6  -2  -9  144.99    8.30
   7   2  -9    1.10    1.20
  -7  -2  -9    3.00    1.50
   7  -2   9    2.90    1.30
  -7  -2  -9    1.90    1.40
  -7   2   9    3.00    1.40
   7  -2  -9    0.90    1.00
  -7  -2   9   -0.30    1.10
   7   2   9    0.90    1.70
  -7   2  -9    1.80    1.30
  -7  -2   9    3.80    1.50
   7   2   9    0.90    1.20
   8  -2   9   24.50    3.30
   8   2  -9   24.00    3.10
  -8  -2  -9   18.90    3.00
  -8   2   9   19.90    2.90
   8  -2  -9   28.00    3.50
  -8  -2   9   18.50    3.00
  -8   2  -9   25.20    3.40
   8   2   9   21.60    3.00
  -9   2   9   12.20    2.60
   9  -2   9   17.60    3.10
  -9  -2  -9   13.00    2.80
   9   2  -9   10.30    2.60
  -9   2  -9   12.70    2.80
   9  -2  -9   13.60    2.70
   9   2   9   14.30    2.80
 -10  -2  -9    2.80    2.10
 -10   2   9    0.40    2.00
  10  -2   9    2.70    2.00
 -10   2  -9    3.30    1.90
  10  -2  -9    4.40    2.10
  10   2   9    0.30    1.90
 -11  -2  -9   11.90    3.60
 -11   2   9   19.40    4.00
 -11   2  -9   14.20    4.20
   0  -3   9   46.40    2.80
   0  -3  -9   50.29    3.20
   0   3   9   42.50    3.10
   0   3   9   50.49    2.90
   0   3   9   50.79    2.50
   0  -3   9   46.40    3.10
   0   3  -9   53.29    3.30
   0  -3  -9   57.29    3.00
   0   3  -9   50.69    2.70
   0   3  -9   45.10    3.40
  -1   3   9  690.13   30.40
   1   3  -9  671.83   30.10
   1  -3   9  693.73   30.10
   1   3  -9  741.83   30.00
  -1   3   9  676.93   29.90
   1   3  -9  739.03   29.10
  -1  -3  -9  708.03   29.90
  -1  -3  -9  650.53   29.20
   1  -3   9  682.83   30.00
  -1   3  -9  667.33   29.30
   1   3   9  746.93   29.80
  -1   3  -9  662.43   29.80
   1  -3  -9  670.33   29.70
   1   3   9  726.23   30.10
  -1   3  -9  637.84   29.70
  -1  -3   9  673.03   29.90
  -1  -3   9  683.83   30.30
   1  -3  -9  701.43   29.80
  -1   3  -9  706.23   30.20
  -2  -3  -9  140.69    7.60
  -2  -3  -9  165.88    6.70
   2  -3   9  139.89    7.00
  -2  -3  -9  138.39    7.40
   2  -3   9  155.08    8.30
   2   3  -9  152.68    6.60
   2   3  -9  148.79    7.80
  -2   3   9  153.38    7.20
   2   3  -9  146.49    7.50
   2  -3   9  142.99    7.20
  -2   3   9  159.28    7.50
   2  -3  -9  144.89    7.40
  -2   3  -9  146.59    7.80
  -2   3  -9  149.29    7.10
  -2  -3   9  144.69    7.50
  -2   3  -9  140.79    7.30
  -2  -3   9  146.39    7.00
   2  -3  -9  145.29    7.40
  -2   3  -9  142.79    7.20
   2   3   9  156.58    7.10
   2   3   9  126.19    7.20
  -3   3   9   52.59    3.60
   3   3  -9   55.49    3.70
  -3  -3  -9   48.70    3.50
  -3  -3  -9   49.90    3.60
   3   3  -9   61.39    4.00
   3  -3   9   58.29    3.60
   3  -3   9   59.39    3.30
  -3  -3   9   63.79    3.00
  -3   3  -9   56.79    4.00
   3  -3  -9   49.10    3.40
   3   3   9   53.29    3.40
  -3   3  -9   57.89    3.40
   3  -3  -9   53.29    3.60
  -3  -3   9   56.09    3.80
   3   3   9   60.19    3.80
  -3   3  -9   56.89    3.50
  -3  -3   9   50.89    3.20
  -3   3  -9   54.69    3.40
   4   3  -9  114.39    6.60
  -4   3   9  120.19    6.50
  -4  -3  -9  112.29    6.70
  -4   3   9  119.19    6.50
  -4  -3  -9  116.39    6.50
   4  -3   9  123.99    6.60
   4   3  -9  135.79    7.30
   4   3  -9  123.39    6.20
   4   3   9  121.99    6.90
  -4   3  -9  127.79    6.60
  -4   3  -9  124.89    7.20
   4   3   9  121.69    6.40
  -4  -3   9  120.69    5.80
  -4   3  -9  124.89    6.50
  -4  -3   9  125.09    6.90
   4  -3  -9  118.79    6.70
  -4   3  -9  131.89    6.40
   5   3  -9   44.10    4.40
  -5  -3  -9   33.60    3.10
  -5   3   9   38.70    3.00
   5   3  -9   38.60    2.70
   5   3  -9   35.50    3.00
   5  -3   9   34.40    3.00
  -5   3   9   41.30    3.20
  -5  -3  -9   37.10    3.10
   5   3   9   36.00    3.80
  -5   3  -9   41.50    3.10
  -5   3  -9   35.70    2.90
  -5   3  -9   38.00    4.20
   5   3   9   34.10    2.90
   5  -3  -9   29.30    3.20
  -5   3  -9   38.30    2.90
  -5  -3   9   38.10    3.30
   6   3  -9  122.29    7.20
   6   3  -9  127.69    6.80
   6  -3   9  122.19    7.10
  -6   3   9  111.39    6.80
  -6  -3  -9  124.49    7.20
  -6  -3  -9  133.69    7.50
  -6   3  -9  130.59    6.90
  -6   3  -9  124.99    7.00
   6   3   9  113.09    6.80
   6  -3  -9  144.69    7.70
  -6   3  -9  136.19    8.20
  -6  -3   9  134.99    7.50
  -6   3  -9  126.79    7.30
   6   3   9  140.09    7.90
   7   3  -9   63.09    4.20
   7   3  -9   70.29    4.60
  -7   3   9   57.19    4.30
  -7  -3  -9   52.79    4.40
  -7  -3  -9   55.19    4.40
   7  -3   9   45.50    4.00
  -7  -3   9   51.09    4.20
   7   3   9   68.09    5.40
   7  -3  -9   55.49    4.60
   7   3   9   50.19    4.00
  -7   3  -9   55.99    4.40
   8   3  -9    6.80    1.90
   8  -3   9   11.40    2.50
  -8   3   9    5.60    1.90
  -8  -3  -9    9.90    2.20
   8   3   9    9.20    2.10
   8  -3  -9    8.30    2.10
  -8   3  -9    8.00    1.90
  -8  -3   9    8.70    2.20
  -9   3   9   33.50    4.10
  -9  -3  -9   30.10    4.00
   9  -3   9   34.40    4.20
   9   3   9   29.00    3.80
  -9   3  -9   33.30    4.10
  -9  -3   9   31.20    4.20
   9  -3  -9   29.90    4.00
 -10   3   9    0.50    1.90
  10  -3   9    3.00    2.20
 -10  -3  -9    3.30    1.90
 -10   3  -9   -1.90    1.40
  10   3   9   -1.10    1.60
  10  -3  -9    0.50    1.50
   0   4   9    0.00    0.50
   0   4   9    0.10    0.50
   0  -4   9   -0.40    0.50
   0   4  -9    1.90    0.80
   0  -4   9    1.20    0.60
   0   4  -9   -0.30    0.80
   0  -4  -9    0.00    0.50
   0   4  -9    0.30    0.40
   0  -4  -9   -0.40    0.50
   0   4  -9    0.10    0.60
   0   4   9    0.00    0.40
   0   4   9   -0.80    0.50
  -1   4   9  131.49    7.10
  -1   4   9  141.59    6.20
   1   4  -9  141.59    7.30
  -1  -4  -9  144.49    7.20
   1   4  -9  149.29    7.60
  -1   4   9  140.89    6.60
  -1  -4  -9  143.19    6.60
  -1   4   9  146.69    6.60
   1  -4   9  143.49    6.80
  -1  -4  -9  150.48    7.50
   1  -4   9  125.99    6.80
   1   4   9  135.49    6.70
  -1  -4   9  133.19    6.70
  -1   4  -9  123.39    7.10
   1  -4  -9  136.59    7.00
  -1   4  -9  135.89    7.10
  -1   4  -9  140.09    7.40
  -1  -4   9  139.29    7.10
   1   4   9  132.79    6.50
   1   4   9  132.39    6.60
   1  -4  -9  135.29    7.10
  -1   4  -9  144.49    6.60
  -2   4   9   28.70    2.40
  -2  -4  -9   28.30    2.40
   2  -4   9   27.30    2.30
  -2  -4  -9   27.10    2.60
   2   4  -9   32.70    3.30
   2  -4   9   27.20    2.00
  -2   4   9   28.60    2.10
   2   4  -9   32.00    2.60
  -2  -4  -9   30.50    1.80
  -2  -4   9   26.40    2.10
   2  -4  -9   27.10    2.30
  -2   4  -9   32.50    2.40
  -2   4  -9   29.90    2.10
  -2  -4   9   27.40    2.40
   2  -4  -9   30.90    2.50
   2  -4  -9   28.40    1.70
  -2   4  -9   33.30    3.20
  -2   4  -9   29.80    2.40
   2   4   9   24.90    2.20
   2   4   9   29.80    2.10
  -3   4   9   62.29    3.90
   3   4  -9   69.69    4.30
  -3  -4  -9   60.29    4.30
  -3  -4  -9   63.39    4.00
   3  -4   9   60.69    3.90
   3   4  -9   68.99    4.60
   3  -4   9   57.99    3.40
  -3  -4   9   62.29    4.20
  -3   4  -9   73.09    4.70
  -3   4  -9   60.49    3.80
  -3   4  -9   65.09    4.10
   3   4   9   60.99    4.00
   3  -4  -9   66.19    4.10
  -3   4  -9   56.79    3.90
  -3  -4   9   58.39    3.60
   3  -4  -9   65.89    4.20
   3   4   9   62.99    3.70
   4   4  -9   51.69    3.80
  -4  -4  -9   51.69    3.90
   4  -4   9   49.99    3.50
   4   4  -9   55.69    4.40
  -4   4   9   55.69    3.60
  -4  -4  -9   57.19    3.80
   4   4  -9   54.59    3.50
  -4   4   9   55.89    3.70
   4  -4  -9   53.49    3.90
   4   4   9   46.70    3.80
   4   4   9   49.80    3.50
  -4   4  -9   56.19    3.80
  -4   4  -9   54.89    3.60
  -4   4  -9   61.99    4.50
  -4   4  -9   55.19    3.70
  -4  -4   9   50.99    3.80
  -5  -4  -9   11.90    2.30
   5   4  -9    8.80    1.70
  -5   4   9    8.40    1.80
   5   4  -9   12.10    2.40
  -5  -4  -9   10.00    1.80
   5   4  -9   12.00    1.70
   5  -4   9    9.70    1.70
  -5   4  -9   12.10    2.00
  -5   4  -9   10.20    1.90
   5   4   9   10.60    2.10
  -5   4  -9    9.60    1.80
   5   4   9    7.80    1.70
  -5  -4   9    7.30    1.80
  -5   4  -9    5.50    2.10
   5  -4  -9    8.40    1.90
   6   4  -9   56.29    3.80
  -6  -4  -9   45.80    4.00
   6  -4   9   46.10    4.30
  -6  -4  -9   47.10    3.80
   6   4  -9   44.80    3.80
  -6   4   9   34.70    3.70
  -6  -4   9   49.99    4.00
  -6   4  -9   52.89    3.90
   6   4   9   49.30    4.70
   6   4   9   46.50    3.70
   6  -4  -9   39.80    4.20
  -6   4  -9   53.79    3.90
  -6   4  -9   57.39    5.50
  -6   4  -9   60.29    4.10
  -7   4   9   24.60    3.20
  -7  -4  -9   22.50    3.00
  -7  -4  -9   26.40    3.40
   7   4  -9   23.90    3.00
   7  -4   9   35.00    3.90
   7   4  -9   28.20    3.10
   7  -4  -9   21.70    3.00
  -7   4  -9   31.70    3.40
  -7   4  -9   27.40    3.30
  -7   4  -9   26.90    3.30
  -7   4  -9   35.60    7.00
   7   4   9   22.30    3.00
   7   4   9   29.20    4.00
  -7  -4   9   26.60    3.50
  -8   4   9    7.90    2.20
  -8  -4  -9   15.30    2.80
  -8  -4  -9   11.50    2.50
   8   4  -9   11.00    3.00
   8  -4   9    9.70    2.30
   8   4   9   10.50    2.30
   8   4   9    9.90    3.00
  -8   4  -9   13.40    2.70
   8  -4  -9   11.70    2.40
  -8  -4   9   10.80    2.50
  -9   4   9   14.40    2.90
  -9  -4  -9   14.10    2.80
   9  -4   9   17.30    3.20
  -9  -4   9   15.50    3.30
   9  -4  -9   21.20    3.40
  -9   4  -9   14.70    2.80
   9   4   9   14.60    3.00
  10  -4   9    5.80    2.80
 -10  -4  -9    5.80    2.40
 -10   4   9    7.80    2.70
 -10   4  -9    8.40    2.60
  10   4   9    5.10    2.10
  10  -4  -9    7.30    2.30
   0   5  -9   99.99    5.60
   0  -5  -9   96.99    5.80
   0   5  -9  105.89    5.80
   0   5   9  103.59    5.00
   0  -5  -9   97.09    5.50
   0   5  -9   93.89    5.80
   0  -5   9   97.79    5.40
   0  -5  -9  108.99    5.30
   0  -5   9  104.29    5.50
   0   5   9   92.39    4.80
   0   5   9  103.79    4.90
   1   5  -9   59.29    4.10
  -1   5   9   49.40    3.50
   1  -5   9   54.59    3.30
   1   5  -9   57.89    3.90
  -1   5   9   56.99    2.90
  -1  -5  -9   59.79    3.20
  -1   5   9   49.50    2.80
   1  -5   9   49.50    3.30
  -1  -5  -9   61.79    3.80
  -1  -5  -9   55.19    4.00
   1  -5  -9   60.29    3.10
   1   5   9   51.79    3.10
   1  -5  -9   53.49    3.70
   1   5   9   45.80    2.90
   1   5   9   46.50    2.90
  -1  -5   9   53.99    3.30
  -1   5  -9   58.39    3.10
  -1   5  -9   48.10    3.80
  -1   5  -9   57.29    3.80
  -1  -5   9   53.09    3.50
   1  -5  -9   59.09    3.60
  -1   5  -9   55.19    3.80
   2   5  -9  129.69    7.10
  -2  -5  -9  122.29    7.00
   2  -5   9  115.99    5.70
   2   5  -9  125.19    6.80
  -2   5   9  112.69    5.60
  -2  -5  -9  118.39    6.60
   2  -5   9  107.39    6.10
  -2   5   9  110.49    6.10
   2  -5  -9  114.89    6.50
  -2  -5   9  112.69    6.30
  -2   5  -9  121.89    6.70
   2   5   9  115.69    5.90
  -2  -5   9  114.79    6.00
   2  -5  -9  128.89    6.60
  -2   5  -9  124.89    6.60
  -2   5  -9  134.79    6.20
   2   5   9  112.19    5.80
  -2   5  -9  115.99    6.90
   3  -5   9   28.40    2.80
  -3  -5  -9   26.80    2.70
   3   5  -9   19.70    2.80
   3   5  -9   25.20    2.80
  -3   5   9   20.90    2.40
  -3  -5  -9   20.30    2.70
   3  -5  -9   24.30    2.70
  -3  -5   9   21.90    2.30
   3   5   9   24.90    2.60
  -3   5  -9   26.10    3.10
  -3  -5   9   24.50    2.80
  -3   5  -9   19.90    2.10
  -3   5  -9   21.70    2.50
   3  -5  -9   27.90    2.80
  -3   5  -9   23.60    2.60
   3   5   9   21.10    2.20
  -4   5   9   97.19    5.40
   4   5  -9  103.49    6.20
   4  -5   9   95.99    5.60
   4   5  -9   90.89    5.20
   4   5  -9   93.59    5.60
  -4  -5  -9   89.09    5.80
  -4  -5  -9   84.79    5.30
  -4   5   9   83.99    5.40
   4   5   9   89.49    5.60
  -4   5  -9   92.09    5.50
  -4  -5   9   92.69    5.80
  -4   5  -9   93.29    5.20
  -4   5  -9   97.59    6.10
   4  -5  -9   88.69    5.50
   4   5   9   90.19    5.30
  -4   5  -9   82.19    5.40
  -5   5   9   55.79    3.90
   5   5  -9   63.99    5.10
  -5  -5  -9   63.19    4.60
  -5  -5  -9   55.99    4.20
   5  -5   9   51.09    3.90
   5   5  -9   61.49    4.00
   5   5  -9   57.09    4.20
   5  -5  -9   60.49    4.40
  -5   5  -9   64.79    4.40
  -5   5  -9   68.89    5.20
  -5   5  -9   54.59    4.10
   5   5   9   49.70    3.80
  -5  -5   9   53.89    4.20
  -5   5  -9   55.09    4.10
   5   5   9   47.10    4.10
   6  -5   9   28.30    3.30
   6   5  -9   31.70    3.20
   6   5  -9   30.50    3.50
  -6   5   9   29.80    3.50
  -6  -5  -9   33.10    3.50
  -6  -5  -9   29.40    3.70
   6   5  -9   34.20    4.30
   6   5   9   32.20    3.90
   6  -5  -9   33.90    3.90
   6   5   9   31.50    3.50
  -6   5  -9   31.10    3.40
  -6   5  -9   29.10    3.30
  -6   5  -9   34.10    3.60
  -6   5  -9   30.80    4.10
  -6  -5   9   31.80    3.60
   7   5  -9   11.70    2.20
   7   5  -9   13.10    2.20
  -7   5   9   12.40    2.40
   7  -5   9   14.80    2.70
  -7  -5  -9   12.90    2.60
  -7  -5  -9   13.60    2.50
   7   5   9   11.30    2.30
  -7   5  -9   14.20    2.40
  -7   5  -9   12.10    2.40
  -7   5  -9   16.20    3.30
   7  -5  -9   11.70    2.40
   7   5   9   11.90    2.70
  -7   5  -9   10.30    2.10
  -7  -5   9    8.10    2.00
   8  -5   9    3.10    1.70
  -8   5   9    6.30    2.20
  -8  -5  -9    4.80    2.00
   8   5  -9    2.30    1.70
  -8  -5  -9    0.10    1.50
   8  -5  -9    2.00    1.80
   8   5   9    4.90    2.60
   8   5   9    4.70    1.90
  -8  -5   9    4.30    2.00
  -8   5  -9    4.50    1.80
  -9   5   9   11.50    2.80
  -9  -5  -9   11.30    2.60
   9  -5   9   12.20    2.80
   9  -5  -9   13.80    3.00
  -9  -5   9   13.60    3.00
  -9   5  -9   13.10    2.90
   9   5   9   10.60    2.60
 -10   5   9    9.60    3.20
  10  -5   9   10.10    3.10
 -10  -5  -9   10.70    3.10
 -10  -5   9    8.60    3.20
 -10   5  -9    5.10    2.20
  10  -5  -9   10.90    2.50
  10   5   9   12.10    2.70
   0   6  -9   -0.40    0.70
   0  -6   9   -0.30    0.60
   0   6   9    0.10    0.60
   0  -6  -9    0.50    0.90
   0   6  -9   -0.30    0.70
   0  -6  -9   -0.40    0.60
   0   6   9    0.10    0.40
   0   6  -9   -0.20    0.90
   0  -6  -9    0.80    0.70
   0   6   9   -0.50    0.50
   0  -6   9   -0.50    0.50
   1   6  -9   75.69    4.90
  -1   6   9   68.99    3.60
  -1  -6  -9   80.09    4.70
  -1  -6  -9   69.89    4.90
   1   6  -9   84.09    5.10
   1  -6   9   76.39    4.50
  -1   6   9   72.89    4.60
   1  -6   9   69.09    4.20
   1   6  -9   68.49    4.60
  -1   6   9   73.79    3.70
  -1  -6  -9   72.39    4.10
   1  -6  -9   75.69    4.70
  -1   6  -9   77.89    4.80
   1  -6  -9   78.69    4.10
   1  -6  -9   86.69    4.70
  -1  -6   9   72.89    4.40
  -1   6  -9   75.99    4.90
  -1   6  -9   70.89    4.80
   1   6   9   82.49    4.00
  -1  -6   9   68.89    4.50
   1   6   9   72.49    4.10
   2   6  -9   35.10    3.10
  -2   6   9   32.50    2.80
  -2  -6  -9   42.00    3.20
  -2  -6  -9   44.00    3.50
   2   6  -9   37.10    3.80
   2  -6   9   36.00    2.90
   2  -6   9   37.80    2.60
  -2   6   9   35.80    2.30
  -2  -6   9   41.90    3.20
   2  -6  -9   43.00    3.20
  -2   6  -9   36.60    3.20
  -2   6  -9   41.40    2.80
   2   6   9   34.60    2.50
  -2  -6   9   34.60    2.80
   2  -6  -9   36.10    3.00
   2   6   9   36.00    2.60
  -2   6  -9   38.40    3.80
  -2   6  -9   39.00    3.10
   3   6  -9   71.09    5.10
   3  -6   9   62.39    4.40
  -3  -6  -9   70.59    5.00
  -3   6   9   77.29    4.50
  -3  -6  -9   70.49    4.60
   3   6  -9   77.89    4.90
  -3   6  -9   80.09    4.30
   3   6   9   65.49    4.20
  -3   6  -9   62.49    4.60
  -3  -6   9   59.59    4.60
  -3   6  -9   74.49    4.90
   3  -6  -9   70.99    4.60
  -3  -6   9   69.59    4.30
   3  -6  -9   70.29    4.70
   3   6   9   74.59    4.30
  -3   6  -9   70.39    5.00
  -4  -6  -9   98.99    5.90
   4   6  -9   97.19    6.00
   4  -6   9   99.39    5.80
  -4   6   9   89.29    5.60
   4   6  -9  100.69    5.80
   4   6  -9  100.19    6.50
  -4  -6  -9  100.09    6.30
  -4  -6   9   89.99    5.90
   4   6   9   93.79    5.50
  -4   6  -9  106.29    6.60
  -4   6  -9   95.59    6.00
   4   6   9   94.99    5.70
  -4   6  -9   96.29    5.60
   4  -6  -9  106.69    6.10
  -4   6  -9   81.69    5.70
  -5   6   9   40.20    3.40
   5   6  -9   38.10    3.20
   5  -6   9   36.90    3.90
  -5  -6  -9   36.60    4.10
   5   6  -9   44.50    3.60
   5   6  -9   41.90    4.60
  -5  -6  -9   36.20    3.70
  -5   6  -9   42.00    3.40
   5   6   9   40.30    4.00
   5   6   9   32.90    3.40
   5  -6  -9   34.10    3.80
  -5   6  -9   42.90    3.60
  -5   6  -9   42.20    4.00
  -5  -6   9   37.50    4.10
  -5   6  -9   40.00    4.50
   6   6  -9    1.90    1.20
   6   6  -9    5.20    2.40
  -6  -6  -9    1.00    1.10
   6   6  -9    3.40    1.40
   6  -6   9    4.20    1.60
  -6  -6  -9    2.80    1.40
  -6   6   9    3.60    1.60
  -6   6  -9    7.20    2.50
  -6   6  -9   -0.80    1.10
  -6   6  -9    4.10    1.70
   6  -6  -9    3.80    1.60
   6   6   9    3.60    1.30
  -6   6  -9    1.50    1.10
   6   6   9    1.60    1.70
  -6  -6   9    3.80    1.60
   7  -6   9   11.00    2.40
  -7  -6  -9   12.20    2.30
   7   6  -9    9.40    2.00
  -7   6   9   10.40    2.30
  -7  -6  -9   11.80    2.50
  -7   6  -9   12.30    2.30
   7   6   9   11.80    3.00
   7   6   9   19.70    2.90
  -7   6  -9    8.70    2.30
  -7   6  -9    8.60    2.30
   7  -6  -9    7.10    2.10
  -7   6  -9   12.10    3.30
  -7  -6   9    8.60    2.30
  -8  -6  -9    1.80    1.90
  -8  -6  -9    2.30    1.70
  -8   6   9    6.40    2.20
   8  -6   9    2.30    1.80
   8   6  -9   -0.20    1.40
  -8  -6   9    3.30    1.90
  -8   6  -9    2.40    2.40
  -8   6  -9    2.50    2.10
   8   6   9    4.00    1.70
   8   6   9   -0.80    1.90
  -8   6  -9   -0.20    1.40
   8  -6  -9    2.90    1.80
   9  -6   9   24.00    3.90
  -9   6   9   23.60    4.00
  -9  -6  -9   22.90    3.50
  -9  -6  -9   24.20    4.00
  -9   6  -9   20.00    3.40
   9   6   9   23.40    3.60
   9  -6  -9   12.50    2.90
  -9  -6   9   24.00    4.10
   9   6   9   21.80    4.80
  10  -6   9    3.60    2.90
 -10   6   9    2.90    3.00
 -10  -6  -9    3.60    3.40
  10   6   9    1.80    1.90
  10  -6  -9    0.30    1.80
 -10   6  -9    2.60    2.20
 -10  -6   9    3.30    2.30
   0   7   9   48.60    2.60
   0   7   9   51.49    3.20
   0  -7  -9   59.19    4.20
   0   7  -9   51.89    4.10
   0   7   9   52.29    2.70
   0  -7  -9   63.19    3.70
   0  -7   9   52.19    3.70
   0   7  -9   54.49    4.10
   0  -7   9   47.10    3.60
   0  -7  -9   57.39    3.90
   0   7  -9   54.09    3.90
   1  -7   9    0.40    0.80
  -1   7   9    0.40    0.40
  -1  -7  -9    0.80    0.90
  -1   7   9    0.50    0.90
   1   7  -9    0.10    0.90
  -1   7   9    0.00    0.50
   1   7  -9   -1.20    0.80
   1  -7   9    0.10    0.70
   1   7  -9    0.70    1.10
  -1  -7  -9   -1.10    0.70
  -1  -7   9   -0.60    0.60
  -1  -7   9   -0.10    0.90
  -1   7  -9    0.90    1.10
   1   7   9    0.10    0.50
   1   7   9    0.00    0.60
  -1   7  -9    1.00    1.00
   1  -7  -9    1.40    0.90
   1  -7  -9   -0.20    0.70
  -1   7  -9    0.50    1.00
   1  -7  -9    1.40    0.80
  -2   7   9  140.09    6.80
   2   7  -9  148.59    8.40
   2  -7   9  142.89    7.80
  -2   7   9  143.99    7.80
   2   7  -9  148.89    8.50
  -2  -7  -9  162.68    8.20
  -2  -7  -9  143.59    8.50
  -2   7  -9  145.69    8.40
   2  -7  -9  163.28    8.30
   2   7   9  139.69    7.50
   2   7   9  154.18    7.20
  -2  -7   9  148.59    7.80
  -2   7  -9  153.18    8.40
  -2  -7   9  151.68    8.10
   2  -7  -9  147.59    8.10
  -2   7  -9  164.08    8.40
   3   7  -9   25.80    3.20
  -3  -7  -9   29.20    3.10
  -3   7   9   26.60    2.90
   3  -7   9   16.70    2.30
  -3  -7  -9   17.90    2.80
   3   7  -9   22.00    3.20
   3   7   9   20.60    2.40
  -3   7  -9   22.40    3.10
  -3  -7   9   22.20    2.60
   3  -7  -9   21.40    2.70
   3   7   9   18.80    2.20
   3  -7  -9   26.20    3.00
  -3   7  -9   27.60    3.30
  -3  -7   9   21.70    2.80
  -3   7  -9   22.20    2.90
  -4  -7  -9  121.99    6.60
   4  -7   9   91.09    6.10
   4   7  -9  104.99    6.60
  -4   7   9  103.49    6.30
   4   7  -9  117.69    7.20
   4   7  -9  114.19    6.50
  -4  -7  -9  109.39    7.00
  -4   7  -9  108.49    6.70
   4   7   9  109.39    6.30
  -4  -7   9  109.29    6.80
  -4   7  -9   98.79    6.50
   4   7   9  112.29    6.20
  -4   7  -9  106.29    6.10
  -4   7  -9  109.99    7.00
   4  -7  -9  105.29    6.70
   5   7  -9    2.10    2.10
  -5  -7  -9    2.20    1.30
  -5  -7  -9    2.70    1.40
   5  -7   9    3.20    1.40
   5   7  -9    2.30    1.30
   5   7  -9    4.20    1.60
  -5   7   9    3.20    1.30
  -5   7  -9    0.60    1.40
  -5  -7   9    0.80    1.00
   5   7   9    1.60    1.10
   5  -7  -9    3.40    1.60
  -5   7  -9   -0.50    0.80
  -5   7  -9    4.20    1.60
  -5   7  -9    1.70    1.70
   5   7   9    2.30    1.50
   6   7  -9   13.00    3.10
   6  -7   9    9.50    2.10
   6   7  -9   13.60    2.50
  -6  -7  -9   12.20    2.40
   6   7  -9   10.90    2.20
  -6   7   9    8.00    1.90
  -6  -7  -9   12.70    2.60
   6  -7  -9   13.20    2.50
  -6   7  -9   11.50    2.50
   6   7   9   10.60    2.40
  -6   7  -9   10.70    2.80
  -6   7  -9   11.60    2.20
  -6  -7   9    7.40    2.20
  -6   7  -9    8.00    2.20
   6   7   9   12.20    2.20
  -7  -7  -9    0.10    1.30
  -7   7   9    1.90    1.50
   7   7  -9    1.40    1.40
  -7  -7  -9    1.40    1.70
   7  -7   9    2.20    1.70
  -7   7  -9   -0.40    1.30
  -7  -7   9   -0.70    1.40
  -7   7  -9    1.70    1.60
   7  -7  -9    2.00    1.50
  -7   7  -9   -0.30    1.30
  -7   7  -9   -0.30    2.20
   7   7   9   -0.40    1.90
   7   7   9    3.00    1.60
  -8  -7  -9    0.70    1.60
   8  -7   9    3.30    1.80
   8   7  -9    5.60    1.90
  -8  -7  -9    5.50    2.20
  -8   7   9    4.70    2.20
  -8   7  -9    3.00    1.70
  -8   7  -9    4.80    3.20
  -8   7  -9    4.60    2.00
  -8  -7   9    5.00    2.10
   8   7   9    8.20    2.10
  -8   7  -9    1.60    1.90
   8   7   9    8.00    3.10
   8  -7  -9    7.30    2.30
  -9   7   9    3.40    2.50
  -9  -7  -9   -0.90    1.90
   9  -7   9   -0.80    1.90
   9  -7  -9   -1.10    1.40
  -9  -7   9    2.50    2.10
  -9   7  -9   -0.50    1.50
   9   7   9    0.30    2.80
   9   7   9    1.20    1.40
   0   8  -9    0.70    1.20
   0   8  -9   -1.10    0.80
   0   8   9    0.90    0.60
   0   8  -9    0.00    0.80
   0   8   9    0.40    0.40
   0  -8   9   -0.40    0.70
   0   8   9   -0.80    0.80
   0  -8  -9   -0.20    0.90
   0  -8  -9    1.10    1.20
   0  -8   9    0.30    1.00
   0  -8  -9    1.20    0.90
  -1  -8  -9    9.50    1.80
  -1   8   9    9.60    0.90
   1   8  -9   10.10    1.90
  -1  -8  -9    8.50    2.00
   1  -8   9   13.40    2.10
  -1   8   9    9.60    1.40
   1   8  -9    5.00    1.50
   1   8  -9    8.80    2.10
   1  -8   9   12.40    1.90
  -1   8   9    8.70    1.90
  -1   8  -9    7.80    1.80
  -1  -8   9    9.70    1.80
   1  -8  -9   12.20    2.00
  -1  -8   9   12.00    2.00
  -1   8  -9    9.60    1.90
   1   8   9   10.20    1.20
   1   8   9   10.70    1.70
  -1   8  -9    8.30    1.90
   1  -8  -9   10.40    1.80
   2   8  -9   59.59    4.50
  -2  -8  -9   62.39    4.70
   2   8  -9   59.29    4.60
  -2   8   9   50.79    2.90
  -2  -8  -9   57.29    4.20
  -2   8   9   53.89    4.00
   2  -8   9   52.69    3.90
  -2  -8   9   53.79    4.10
   2  -8  -9   62.39    4.30
   2   8   9   52.29    3.30
  -2   8  -9   59.69    4.50
  -2   8  -9   59.69    4.40
   2   8   9   50.69    3.70
   2  -8  -9   54.79    4.10
  -2  -8   9   53.29    4.00
  -2   8  -9   54.69    4.50
  -3  -8  -9   95.09    6.50
   3   8  -9  104.89    6.60
   3   8  -9   96.69    6.10
   3  -8   9   79.09    5.40
  -3  -8  -9   90.79    5.80
   3  -8  -9   87.69    5.90
  -3  -8   9   91.09    5.90
  -3   8  -9   92.89    6.30
  -3  -8   9   87.19    5.50
   3  -8  -9  100.69    6.00
   3   8   9   91.09    5.40
  -3   8  -9   95.09    6.10
  -3   8  -9   98.09    6.40
   3   8   9   86.69    5.10
   4  -8   9   10.40    2.10
  -4  -8  -9   10.50    2.50
  -4  -8  -9   19.70    2.60
  -4   8   9   11.20    2.10
   4   8  -9   12.40    2.30
   4   8  -9   14.90    2.40
   4   8  -9   12.20    2.70
   4   8   9   16.40    2.40
  -4   8  -9    8.50    2.10
   4   8   9   15.20    2.20
  -4  -8   9    9.60    1.90
   4  -8  -9    8.00    2.10
  -4   8  -9   13.80    2.40
  -4  -8   9   10.10    2.30
  -4   8  -9   13.60    2.70
   5   8  -9   17.80    2.80
  -5   8   9   18.40    2.80
   5   8  -9   16.20    2.60
  -5  -8  -9   13.10    2.60
  -5  -8  -9   22.10    2.90
   5   8  -9   20.80    3.60
   5  -8   9   16.90    2.70
   5   8   9   16.70    2.60
  -5   8  -9   18.10    2.90
   5   8   9   19.90    2.90
  -5   8  -9   19.60    3.40
  -5   8  -9   16.00    2.80
  -5  -8   9   14.50    2.90
   5  -8  -9   18.40    3.00
   6  -8   9   14.40    2.70
  -6   8   9   14.70    2.60
  -6  -8  -9   11.80    2.50
   6   8  -9   11.00    2.30
  -6  -8  -9   13.00    2.90
   6   8  -9   14.70    3.50
  -6   8  -9   12.00    3.10
  -6   8  -9   16.40    2.60
   6   8   9   11.80    2.30
  -6   8  -9   13.60    2.80
  -6  -8   9   15.30    3.10
   6   8   9   14.80    3.00
  -6   8  -9   17.20    3.00
   6  -8  -9   13.80    2.80
   7   8  -9   34.30    5.20
  -7  -8  -9   38.30    4.80
  -7   8   9   35.00    4.30
   7   8  -9   33.90    4.10
   7  -8   9   32.90    4.20
   7   8   9   41.60    5.00
  -7   8  -9   42.10    4.40
  -7  -8   9   37.10    4.70
  -7   8  -9   31.00    4.10
  -7   8  -9   31.30    4.10
  -7   8  -9   32.10    4.90
   7  -8  -9   34.30    4.50
   7   8   9   42.50    4.50
  -8   8   9   -1.10    1.30
   8  -8   9    1.70    2.00
  -8  -8  -9    2.80    1.90
   8   8  -9    1.30    1.60
  -8  -8   9   -0.60    1.40
  -8   8  -9    1.40    1.80
   8   8   9    1.70    1.90
  -8   8  -9    2.90    2.10
   8   8   9    2.10    2.70
  -8   8  -9    0.70    2.50
   8  -8  -9    1.40    1.70
  -8   8  -9    3.00    1.90
  -9   8   9   26.20    4.10
   9  -8   9   44.00    5.30
  -9  -8  -9   27.20    4.50
   9   8  -9   26.90    4.30
  -9  -8   9   37.30    5.30
   9   8   9   40.10    6.10
   9  -8  -9   42.60    5.20
  -9   8  -9   39.40    4.90
   9   8   9   34.60    4.50
   0  -9   9  210.68   10.50
   0  -9  -9  228.48   11.30
   0  -9   9  204.98   10.60
   0  -9  -9  202.18   10.50
   0   9  -9  203.88   10.90
   0   9   9  191.58    8.80
   0   9  -9  200.28   11.10
   0   9   9  213.38   10.20
   0   9  -9  201.58   10.80
  -1  -9  -9   97.49    5.70
   1   9  -9   95.39    6.20
   1  -9   9   83.29    5.50
  -1  -9  -9   79.99    5.90
   1   9  -9   88.49    5.80
   1   9  -9   88.99    6.10
   1   9   9   91.99    5.30
   1  -9  -9   98.89    5.70
   1   9   9   82.69    4.30
  -1   9  -9   86.19    5.90
  -1   9  -9   75.29    5.80
   1  -9  -9   78.29    5.40
   1  -9  -9  102.09    6.20
  -1  -9   9   82.99    5.60
  -1  -9   9   83.99    5.50
  -1   9  -9   97.49    6.00
  -2  -9  -9   49.70    4.50
   2  -9   9   47.40    3.90
   2   9  -9   53.99    4.60
   2   9  -9   59.59    4.50
  -2   9   9   48.90    2.70
  -2  -9  -9   46.20    3.80
  -2   9  -9   46.00    4.60
  -2  -9   9   49.90    4.20
  -2   9  -9   48.50    4.90
   2   9   9   48.70    3.20
  -2   9  -9   51.99    4.20
   2  -9  -9   48.40    3.90
   2   9   9   50.69    3.80
   2  -9  -9   54.99    4.20
  -2  -9   9   51.49    4.10
   3   9  -9   32.70    4.00
  -3  -9  -9   24.60    3.60
  -3  -9  -9   34.40    3.50
   3   9  -9   37.30    3.90
  -3   9   9   28.20    3.30
   3  -9   9   36.60    3.80
  -3  -9   9   30.00    3.70
  -3  -9   9   35.80    3.70
  -3   9  -9   26.30    3.50
   3   9   9   28.70    2.90
  -3   9  -9   25.10    3.50
   3   9   9   37.70    3.60
   3  -9  -9   37.90    3.80
  -3   9  -9   29.80    3.50
   3  -9  -9   29.80    3.30
   4   9  -9   50.99    5.20
   4  -9   9   44.50    4.40
  -4  -9  -9   46.60    5.20
   4   9  -9   39.80    4.30
  -4  -9  -9   48.00    4.60
   4   9  -9   54.79    4.40
  -4   9   9   50.49    4.00
   4   9   9   42.90    3.70
   4   9   9   49.80    4.00
  -4  -9   9   43.80    4.40
   4  -9  -9   49.60    4.30
  -4   9  -9   53.89    4.50
  -4   9  -9   64.39    5.00
  -4  -9   9   53.19    4.60
  -4   9  -9   42.90    4.70
  -5   9   9   23.50    3.20
   5   9  -9   22.90    4.00
   5  -9   9   18.50    2.90
  -5  -9  -9   20.80    3.40
   5   9  -9   23.30    3.30
   5   9  -9   24.00    3.10
  -5   9  -9   26.20    3.70
   5   9   9   18.50    2.90
  -5   9  -9   27.40    3.80
  -5  -9   9   22.30    3.60
   5   9   9   21.10    3.10
   5  -9  -9   21.60    3.20
  -5   9  -9   23.70    3.80
  -6  -9  -9   28.50    4.10
   6   9  -9   27.70    4.50
   6   9  -9   27.90    3.60
  -6   9   9   26.60    3.50
   6  -9   9   28.70    3.80
  -6  -9   9   21.40    3.60
  -6   9  -9   28.90    4.50
   6   9   9   28.10    3.90
   6   9   9   33.90    4.00
  -6   9  -9   32.00    4.10
  -6   9  -9   26.90    3.90
   6  -9  -9   28.90    3.80
   7   9  -9    5.10    3.20
  -7   9   9    3.10    1.70
  -7  -9  -9    5.00    2.30
   7   9  -9    4.70    1.80
   7  -9   9    3.10    2.00
  -7   9  -9    4.80    2.20
   7  -9  -9    5.60    2.20
  -7   9  -9    3.70    2.80
  -7   9  -9    3.30    2.00
   7   9   9    4.00    2.60
  -7  -9   9    5.40    2.10
   7   9   9    3.50    1.90
   8  -9   9    2.50    2.30
  -8   9   9    0.50    1.60
   8   9  -9   -0.10    1.70
  -8  -9  -9    1.60    2.00
  -8   9  -9    0.50    2.30
   8   9   9    1.20    1.70
  -8   9  -9   -0.40    2.90
  -8  -9   9    2.20    1.90
   8   9   9    1.10    2.60
   8  -9  -9   -2.10    1.20
  -8   9  -9    2.40    1.90
   0 -10   9   -2.30    1.30
   0 -10  -9   -0.40    1.40
   0  10  -9    0.10    1.30
   0 -10  -9    1.50    1.30
   0 -10   9    0.70    1.10
   0  10  -9   -0.50    1.00
   0  10  -9    0.30    1.40
   1  10  -9   24.30    3.50
   1  10  -9   19.10    3.10
   1  10  -9   18.70    2.90
  -1 -10  -9   21.80    2.80
  -1 -10  -9   22.90    3.30
   1 -10   9   19.40    2.80
  -1  10  -9   19.40    3.10
  -1 -10   9   16.80    2.80
   1 -10  -9   29.70    3.30
  -1  10  -9   16.60    3.10
   1  10   9   25.10    2.90
  -1 -10   9   17.50    2.80
   1 -10  -9   25.30    3.40
   1 -10  -9   17.70    2.60
  -1  10  -9   25.60    3.50
   1  10   9   19.50    1.60
  -2 -10  -9    6.30    1.90
  -2 -10  -9    3.50    1.90
  -2  10   9    5.60    0.90
   2 -10   9    2.70    1.50
   2  10  -9    9.20    2.10
   2  10  -9   13.50    2.70
  -2  10  -9    4.30    1.80
  -2 -10   9    6.30    2.00
   2  10   9    7.20    1.70
   2  10   9    5.30    1.20
  -2  10  -9    9.30    2.30
   2 -10  -9    2.50    1.50
   2 -10  -9    2.70    1.60
  -2  10  -9    4.10    1.80
  -2 -10   9    6.80    1.80
   3  10  -9   10.40    2.80
   3 -10   9   12.50    2.40
   3  10  -9   12.60    2.40
  -3  10   9   11.30    2.20
  -3 -10  -9    5.30    2.10
   3  10   9    9.80    2.00
   3 -10  -9   11.40    2.30
   3  10   9   11.40    1.90
  -3  10  -9    9.00    2.30
  -3 -10   9    7.20    2.20
  -3 -10   9   10.30    2.20
  -3  10  -9    8.30    2.50
  -3  10  -9    3.70    1.80
  -4  10   9    5.00    1.70
   4 -10   9    1.90    1.60
   4  10  -9    8.80    2.80
   4  10  -9    8.80    2.20
   4  10  -9    4.40    1.90
  -4 -10  -9    1.70    2.00
  -4 -10   9    5.30    2.20
   4  10   9    5.10    1.70
   4 -10  -9    4.80    2.00
  -4 -10   9    4.10    1.80
  -4  10  -9    5.20    2.20
  -4  10  -9    9.30    2.60
   4  10   9    6.30    1.80
  -4  10  -9    4.80    2.10
  -5 -10  -9    2.40    2.00
   5 -10   9   -0.10    1.50
  -5  10   9    2.50    1.60
   5  10  -9    5.80    2.00
   5  10  -9    2.20    2.30
   5  10   9    3.20    1.70
   5 -10  -9    6.20    2.30
  -5  10  -9    2.00    2.30
  -5  10  -9    3.10    2.00
  -5  10  -9    8.50    2.60
  -5 -10   9    4.20    2.00
   5  10   9    2.80    1.70
   6  10  -9   17.80    3.10
   6 -10   9   17.70    3.30
  -6 -10  -9   13.90    3.20
   6  10  -9   21.40    4.20
  -6  10   9   19.90    3.30
  -6  10  -9   14.80    3.50
   6  10   9   15.80    3.20
  -6  10  -9   22.60    3.70
   6 -10  -9    8.60    2.60
  -6  10  -9   21.30    3.70
   6  10   9   15.50    2.80
  -6 -10   9   20.90    3.70
  -7 -10  -9   -0.30    1.90
   7  10  -9   -1.80    2.80
  -7  10   9    4.50    1.90
   7  10  -9    5.00    2.20
   7 -10   9   -0.20    1.70
   7 -10  -9   -0.10    1.90
   7  10   9    1.40    1.90
  -7  10  -9    3.20    2.90
  -7 -10   9    2.70    1.80
   7  10   9   -1.10    2.30
  -7  10  -9    6.00    2.70
  -7  10  -9    3.00    2.20
   0  11  -9   73.79    5.90
   0  11  -9   70.99    5.60
   0 -11  -9   91.09    5.70
   0 -11  -9   75.39    6.00
   0  11  -9   82.89    6.10
   0 -11   9   70.09    5.30
  -1 -11  -9  121.99    8.20
   1  11  -9  133.89    8.00
   1  11  -9  123.09    8.10
   1  11  -9  118.19    7.90
   1 -11   9  123.39    7.60
  -1  11  -9  125.29    8.20
  -1 -11   9  113.29    7.50
  -1  11  -9  133.39    8.20
   1  11   9  112.09    5.60
  -1  11  -9  128.39    8.00
   1  11   9  118.29    8.10
  -1 -11   9  122.09    7.60
   1 -11  -9  126.29    7.50
   2  11  -9   34.30    4.30
  -2 -11  -9   33.30    4.40
   2 -11   9   25.10    3.70
   2  11  -9   22.60    3.70
   2  11   9   30.10    2.50
   2 -11  -9   27.00    3.50
  -2  11  -9   22.50    3.70
  -2  11  -9   28.80    3.80
  -2 -11   9   34.90    4.10
  -2 -11   9   28.90    3.80
  -2  11  -9   30.70    3.90
   2  11   9   32.30    3.60
   2 -11  -9   30.00    3.60
  -3 -11  -9   45.90    5.40
   3 -11   9   43.70    4.70
   3  11  -9   52.59    5.30
   3  11  -9   46.00    5.40
  -3  11   9   45.90    4.50
  -3  11  -9   51.69    5.60
  -3  11  -9   38.60    4.80
   3  11   9   44.40    4.50
  -3  11  -9   45.60    5.10
  -3 -11   9   43.60    5.00
  -3 -11   9   42.00    4.80
   3 -11  -9   58.29    4.90
   3  11   9   47.20    3.60
  -4 -11  -9   16.70    3.60
   4  11  -9   15.80    3.40
  -4  11   9   19.80    3.00
   4  11  -9   15.40    3.40
   4  11  -9   14.80    3.00
   4 -11   9   16.10    3.00
   4 -11  -9   23.70    3.70
   4  11   9   16.00    2.60
  -4  11  -9   20.90    3.60
  -4  11  -9   16.50    3.40
  -4 -11   9   15.40    3.20
  -4  11  -9   20.40    3.60
   4  11   9   20.40    3.00
   5  11  -9   25.00    4.40
   5 -11   9   23.70    3.50
  -5 -11  -9   21.90    4.00
   5  11  -9   22.40    3.70
  -5  11   9   27.90    3.70
   5 -11  -9   23.20    3.80
  -5  11  -9   24.50    4.20
   5  11   9   25.60    3.60
  -5  11  -9   22.40    3.70
   5  11   9   17.50    3.20
  -5  11  -9   26.90    4.30
  -5 -11   9   28.40    4.40
  -6  11   9    5.20    2.10
   6  11  -9    7.50    2.40
   6 -11   9   10.30    2.80
   6  11  -9   11.40    3.70
  -6 -11  -9   12.60    3.10
  -6  11  -9    7.90    2.80
   6  11   9    6.60    2.80
  -6  11  -9    8.70    2.80
   6 -11  -9    8.80    2.80
  -6 -11   9    8.90    3.10
   6  11   9    8.50    2.50
  -6  11  -9   10.00    3.40
   7  11  -9    8.50    4.20
  -7  11   9   10.40    2.70
   7 -11   9   12.40    3.50
   7  11  -9   11.80    3.10
  -7 -11  -9   13.60    3.80
  -7  11  -9   15.20    3.80
  -7  11  -9   21.50    4.80
   7 -11  -9   13.80    4.10
  -7 -11   9   10.30    4.00
  -7  11  -9    7.20    3.20
   7  11   9   11.20    4.00
   7  11   9   12.80    2.90
   0 -12   9    0.70    1.40
   0  12  -9    1.30    1.60
   0  12  -9   -0.20    1.30
   0 -12  -9   -0.50    1.90
   0  12  -9    0.10    1.90
  -1 -12  -9   -0.60    1.80
   1 -12   9    2.20    1.60
   1  12  -9   -1.30    1.60
   1  12  -9    0.50    1.70
   1  12  -9   -1.20    1.50
  -1  12  -9    2.20    1.80
   1  12   9    0.30    0.70
  -1  12  -9   -0.10    1.80
  -1  12  -9   -0.50    1.90
  -1 -12   9   -2.20    1.10
  -2 -12  -9    7.20    2.60
  -2  12   9    7.50    3.60
   2  12  -9    7.00    2.30
   2  12  -9    6.30    2.70
   2 -12   9    4.80    2.10
  -2  12  -9   13.80    2.70
   2 -12  -9    4.00    2.50
   2  12   9    9.80    1.60
   2  12   9    7.20    2.20
  -2  12  -9    7.80    2.70
  -2 -12   9    5.20    2.10
  -2 -12   9    7.60    2.50
  -2  12  -9    7.00    2.40
   3  12  -9    7.50    2.50
   3  12  -9    8.80    2.80
  -3  12   9    4.80    2.10
  -3 -12  -9    4.90    2.40
   3 -12   9    8.40    2.60
   3  12   9    6.10    1.70
  -3 -12   9    4.20    2.00
   3  12   9    4.40    2.00
  -3  12  -9    2.70    2.20
  -3  12  -9   10.10    2.90
  -3 -12   9    6.10    2.20
  -3  12  -9    2.70    2.00
   3 -12  -9    7.60    2.40
  -4 -12  -9   -0.60    2.00
  -4  12   9    5.30    2.00
   4  12  -9    4.60    2.00
   4  12  -9    5.40    2.70
   4 -12   9    4.00    2.10
  -4  12  -9    0.70    2.30
  -4  12  -9    2.80    2.00
  -4 -12   9    2.50    2.20
   4 -12  -9    4.50    2.30
   4  12   9    0.40    1.50
   4  12   9    3.10    1.90
  -4  12  -9    4.20    2.40
   5  12  -9   11.10    3.70
  -5  12   9   14.00    2.90
   5 -12   9    8.60    2.90
   5  12  -9   12.40    3.00
  -5 -12  -9   13.00    3.60
   5  12   9    9.20    2.30
   5  12   9   12.40    2.70
  -5 -12   9   15.80    3.50
  -5  12  -9   10.50    3.60
   5 -12  -9   11.70    3.20
  -5  12  -9   16.90    4.00
  -5  12  -9   14.30    3.50
   0  13  -9   25.00    3.90
   0  13  -9   21.60    3.90
   0  13  -9   20.60    3.80
   0 -13   9   18.40    3.20
   1  13  -9   57.69    6.20
  -1 -13  -9   76.09    6.80
   1  13  -9   72.39    7.10
   1 -13   9   66.19    6.50
   1  13  -9   71.49    6.10
  -1  13  -9   60.09    6.30
  -1  13  -9   67.99    6.60
  -1  13  -9   68.99    6.90
   1  13   9   75.49    4.10
  -1 -13   9   73.79    6.00
  -2 -13  -9   28.00    4.40
   2  13  -9   22.50    4.10
   2  13  -9   19.40    3.60
   2 -13   9   20.90    3.70
  -2  13  -9   19.60    3.70
  -2  13  -9   14.70    3.30
   2  13   9   18.90    2.30
  -2 -13   9   24.90    3.70
  -2  13  -9   19.50    3.80
   3  13  -9   57.19    6.50
  -3 -13  -9   68.99    7.20
   3 -13   9   61.89    6.30
  -3 -13   9   50.69    5.60
  -3 -13   9   56.49    6.10
  -3  13  -9   62.39    6.40
  -3  13  -9   52.59    6.20
  -3  13  -9   74.59    6.10
   3 -13  -9   72.89    6.20
   3  13   9   69.59    4.70
   3  13   9   64.79    6.10
   4 -13   9    3.40    2.60
  -4 -13  -9    0.70    2.80
   4  13  -9    0.50    2.50
   4  13  -9    4.70    3.60
  -4  13  -9    4.10    2.20
  -4  13  -9    3.00    3.10
   4  13   9    5.90    2.40
  -4  13  -9   10.60    2.90
   4  13   9    5.80    2.00
   4 -13  -9    1.60    2.10
  -4 -13   9    1.30    2.60
   0  14  -9   -0.80    2.00
   0 -14   9    1.10    1.70
   0  14  -9    0.40    1.90
   0  14  -9   -1.50    2.80
   1 -14   9    1.00    2.70
   1  14  -9    1.70    2.50
   1  14  -9    0.70    2.40
   1  14  -9    0.90    3.30
  -1  14  -9    5.50    2.40
  -1 -14   9    2.10    1.80
  -1  14  -9    1.00    2.10
  -1  14  -9    2.10    3.20
   0   0 -10 4401.56  175.48
   0   0 -10 3979.50  175.38
   0   0  10 4428.16  167.48
   0   0  10 3790.52  168.28
   0   0  10 3808.22  168.28
   1   0  10    0.20    0.50
   1   0 -10   -0.30    0.40
  -1   0  10   -0.80    0.60
   1   0  10    0.50    0.70
  -1   0  10   -1.10    0.40
  -1   0 -10   -0.40    0.40
   1   0  10    0.50    0.80
   1   0 -10    0.00    0.60
  -1   0 -10   -0.10    0.50
  -2   0  10  575.44   26.30
   2   0  10  596.64   26.20
  -2   0 -10  624.64   25.60
  -2   0  10  631.34   26.50
   2   0 -10  548.65   25.60
  -2   0 -10  572.44   25.20
   2   0 -10  600.84   25.40
   2   0  10  589.44   25.90
   2   0  10  607.44   26.50
   3   0 -10    0.00    0.60
   3   0 -10    0.50    0.50
  -3   0 -10    0.10    0.50
   3   0  10    0.80    0.70
   3   0 -10    0.30    0.60
  -3   0 -10    0.50    0.60
   3   0  10   -0.30    0.80
  -3   0  10    0.30    0.60
  -3   0 -10   -0.10    1.10
   3   0  10    1.50    0.70
   4   0  10  115.29    6.70
   4   0 -10  109.59    6.50
  -4   0 -10  123.99    6.50
  -4   0  10  116.49    5.90
  -4   0  10  115.19    6.30
   4   0  10  118.29    6.20
  -4   0 -10  125.49    5.80
   4   0  10  103.69    6.00
  -4   0 -10  123.29    5.90
  -5   0 -10    1.00    1.00
   5   0 -10   -0.30    0.70
   5   0  10    1.50    1.50
   5   0  10   -0.10    0.80
  -5   0  10    2.00    1.00
   5   0  10   -0.80    0.70
  -5   0  10    1.80    0.80
  -6   0 -10  282.97   13.20
  -6   0  10  314.37   14.50
  -6   0  10  301.07   14.10
   6   0 -10  252.87   13.10
   6   0  10  276.97   14.30
  -7   0  10   -0.20    1.00
  -7   0 -10    0.20    1.20
   7   0  10    0.10    1.10
   7   0 -10    0.30    1.00
  -7   0  10    1.00    1.10
   8   0 -10   46.30    4.10
  -8   0 -10   53.49    4.50
   8   0  10   53.29    5.10
  -8   0  10   51.89    4.30
   9   0  10   -0.30    1.40
  -9   0 -10   -2.20    1.40
  -9   0  10    0.00    1.40
   9   0 -10    0.70    1.50
 -10   0  10    7.30    2.70
  10   0 -10   10.20    2.80
 -10   0 -10    7.20    2.60
  10   0  10   10.00    3.00
   0  -1 -10    0.30    0.60
   0   1  10    0.10    0.40
   0  -1  10   -0.20    0.70
   0   1  10    0.70    0.70
   0   1 -10   -0.20    0.90
   0  -1  10    0.40    0.40
   0  -1 -10   -0.50    0.50
   0   1  10    0.80    0.70
   0  -1  10    1.10    0.70
   0   1 -10    0.20    0.60
   0   1 -10   -0.80    0.40
  -1  -1 -10   93.49    5.20
   1  -1  10  106.59    5.10
  -1  -1 -10  100.19    5.00
   1  -1  10  104.19    5.50
   1   1 -10  103.69    5.00
  -1   1  10  102.79    5.60
  -1   1  10  103.09    5.60
   1  -1  10  110.29    5.80
   1   1 -10  111.39    5.80
   1   1 -10   95.59    5.30
   1   1  10   98.29    5.60
  -1  -1  10  103.79    4.90
  -1   1 -10  110.39    5.20
  -1  -1  10  102.79    5.70
  -1   1 -10   98.69    5.20
   1   1  10  104.09    5.60
   1   1  10  107.99    5.00
   1  -1 -10   94.39    5.20
   1  -1 -10   97.69    5.20
  -1   1 -10  108.09    5.70
  -2   1  10  372.76   17.30
   2  -1  10  401.96   17.50
   2   1 -10  380.86   17.90
   2   1 -10  394.66   17.70
  -2   1  10  368.86   17.20
   2   1 -10  390.66   17.20
   2  -1  10  390.16   16.90
  -2  -1 -10  377.26   17.60
  -2  -1 -10  419.06   17.10
   2  -1  10  379.46   17.00
  -2  -1  10  395.16   16.30
   2  -1 -10  382.66   17.40
  -2   1 -10  386.86   17.40
  -2  -1  10  382.66   17.40
   2   1  10  351.36   17.20
  -2   1 -10  382.66   17.30
  -2  -1  10  368.96   17.20
   2  -1 -10  402.46   17.60
  -2   1 -10  409.66   18.00
   2   1  10  378.96   17.20
   2   1  10  390.26   16.80
   3  -1  10   56.49    3.50
  -3   1  10   64.89    3.90
   3   1 -10   60.99    3.10
   3   1 -10   66.49    4.30
   3   1 -10   60.69    3.90
   3  -1  10   52.69    3.50
  -3  -1 -10   57.79    3.70
  -3  -1 -10   59.39    3.10
   3   1 -10   55.89    3.30
  -3  -1  10   52.39    3.70
   3  -1 -10   61.29    3.90
  -3   1 -10   63.19    3.50
  -3   1 -10   53.89    3.50
   3   1  10   59.79    3.70
   3  -1 -10   58.69    3.50
   3   1  10   56.29    4.00
  -3   1 -10   60.59    3.40
  -3   1 -10   58.69    4.20
   3   1  10   57.19    3.50
   4   1 -10   85.89    4.40
   4  -1  10   84.29    5.10
  -4   1  10   93.19    5.10
   4   1 -10   90.39    5.30
  -4   1  10   88.49    5.30
   4  -1  10   92.29    5.00
   4  -1  10  104.39    6.00
  -4  -1 -10   86.29    5.10
  -4   1 -10   89.39    5.70
   4   1  10   98.49    5.80
   4   1  10   88.79    5.20
  -4   1 -10   93.29    4.70
  -4  -1  10   90.99    5.40
  -4   1 -10   84.29    5.00
   4   1  10   88.39    5.10
  -4  -1  10   90.79    4.90
  -4   1 -10   87.59    4.60
   4  -1 -10   91.19    5.30
  -5  -1 -10  461.65   21.50
   5  -1  10  507.15   23.60
   5  -1  10  483.65   21.50
  -5   1  10  480.45   21.90
   5   1 -10  505.75   21.70
  -5   1  10  471.95   21.60
   5  -1  10  491.55   21.90
  -5  -1 -10  481.65   21.50
  -5  -1  10  466.75   22.00
   5   1  10  473.45   21.80
   5  -1 -10  455.05   21.50
  -5  -1  10  481.15   21.40
  -5   1 -10  465.75   21.50
   5   1  10  505.15   22.60
  -6   1  10  140.99    7.70
  -6  -1 -10  126.09    7.40
   6   1 -10  140.09    7.70
   6  -1  10  116.69    7.60
  -6  -1 -10  144.89    7.70
  -6   1  10  144.59    7.60
   6   1  10  151.28    8.70
   6   1  10  142.89    7.80
  -6  -1  10  142.09    7.40
   6  -1 -10  137.39    7.70
  -6  -1  10  150.48    8.00
  -6   1 -10  129.09    7.50
  -7   1  10  407.96   19.20
   7   1 -10  398.96   18.40
   7  -1  10  405.26   19.40
  -7  -1 -10  377.06   18.30
   7  -1 -10  367.96   18.30
  -7  -1  10  397.76   18.80
  -7  -1  10  434.96   19.60
  -7   1 -10  393.86   18.40
   7   1  10  409.66   19.40
   8   1 -10   44.10    4.40
  -8  -1 -10   38.70    4.20
  -8   1  10   44.20    4.30
   8  -1  10   35.00    3.90
   8   1  10   43.80    4.40
  -8  -1  10   38.90    4.20
   8  -1 -10   41.60    4.40
  -8  -1  10   40.90    4.00
  -8   1 -10   39.90    4.20
  -9   1  10   83.79    6.20
   9  -1  10   96.99    6.80
  -9  -1 -10   84.59    6.40
   9   1 -10   87.39    6.20
   9  -1 -10   92.09    6.40
   9   1  10   97.59    6.80
  -9   1 -10   73.49    6.10
  10  -1  10   22.00    3.90
 -10   1  10   25.80    3.80
 -10  -1 -10   19.40    3.70
  10   1  10   20.80    3.80
 -10   1 -10   17.60    3.50
  10  -1 -10   31.20    4.10
   0  -2  10  443.96   19.40
   0   2  10  437.06   19.80
   0  -2 -10  447.46   20.60
   0  -2  10  472.15   20.10
   0   2 -10  470.05   20.20
   0   2  10  468.55   19.00
   0   2  10  430.46   20.00
   0   2 -10  480.65   21.10
   0  -2  10  427.76   19.80
   0  -2 -10  463.85   20.30
   0   2 -10  471.75   20.60
   1  -2  10  787.42   37.80
  -1  -2 -10  835.32   37.10
   1   2 -10  868.31   37.50
   1   2 -10  811.02   37.10
  -1   2  10  897.71   38.20
   1   2 -10  889.21   36.60
  -1  -2 -10  873.91   36.60
   1  -2  10  875.91   37.60
  -1   2  10  895.01   37.90
   1  -2  10  911.81   38.30
  -1  -2  10  860.61   37.40
  -1  -2  10  839.42   38.00
   1   2  10  946.31   37.40
   1  -2 -10  908.91   37.10
  -1  -2  10  910.51   38.20
  -1   2 -10  803.92   37.00
   1   2  10  892.31   38.20
   1   2  10  878.31   37.90
  -1   2 -10  909.61   36.80
   1  -2 -10  835.42   37.00
  -1   2 -10  880.01   37.50
   2   2 -10  105.99    5.00
   2   2 -10   99.39    5.60
   2  -2  10  101.49    5.30
  -2   2  10  105.39    5.60
  -2  -2 -10  101.69    4.90
  -2  -2 -10  108.69    5.60
   2  -2  10   99.39    5.70
   2  -2  10  100.39    5.20
  -2   2  10  102.09    5.50
   2   2 -10  101.09    5.90
  -2   2 -10  106.79    5.40
  -2  -2  10   99.09    5.60
   2   2  10  100.49    5.10
   2  -2 -10  100.89    5.50
   2  -2 -10   97.59    5.50
   2   2  10   96.49    5.50
  -2   2 -10  106.29    5.50
  -2   2 -10  111.59    6.00
   2   2  10   85.69    5.40
  -2   2 -10  103.89    5.40
  -2  -2  10  106.59    4.90
   3   2 -10   62.99    4.20
   3  -2  10   69.89    4.10
   3   2 -10   73.89    4.70
  -3  -2 -10   63.69    4.30
  -3  -2 -10   66.99    4.20
   3  -2  10   71.79    4.60
  -3   2  10   60.39    4.10
   3   2 -10   71.19    3.70
   3  -2  10   67.69    3.90
  -3  -2  10   66.99    4.30
  -3   2 -10   68.09    4.00
   3   2  10   75.29    4.00
   3   2  10   66.69    4.40
  -3   2 -10   77.79    4.80
  -3   2 -10   67.09    4.00
   3  -2 -10   72.19    4.20
  -3   2 -10   72.29    3.90
  -3  -2  10   67.59    3.60
   4  -2  10   19.90    2.00
  -4   2  10   21.50    2.30
   4  -2  10   16.10    2.10
   4   2 -10   19.00    1.60
   4  -2  10   18.20    3.40
   4   2 -10   24.00    3.00
   4   2 -10   15.00    2.10
  -4   2  10   17.90    2.20
  -4  -2 -10   18.70    2.30
  -4  -2 -10   18.20    2.30
  -4   2 -10   22.00    2.90
  -4  -2  10   16.30    2.30
   4   2  10   19.30    2.60
  -4   2 -10   17.40    2.20
  -4  -2  10   20.60    1.70
   4  -2 -10   17.70    2.30
  -4   2 -10   17.60    2.00
  -4   2 -10   19.70    2.00
   4   2  10   16.40    2.00
   5   2 -10  157.18    8.40
   5  -2  10  149.79    8.20
  -5  -2 -10  152.38    8.40
  -5   2  10  152.78    8.10
  -5  -2 -10  156.28    8.30
  -5   2  10  157.38    8.10
   5   2 -10  173.58    7.80
  -5   2 -10  166.68    8.00
  -5   2 -10  151.28    8.20
  -5  -2  10  158.68    8.50
  -5   2 -10  165.08    7.90
   5   2  10  162.48    8.90
   5   2  10  141.49    8.00
  -5   2 -10  153.48    9.10
  -5  -2  10  164.78    7.70
   5  -2 -10  141.09    8.30
  -6  -2 -10   20.40    2.70
  -6   2  10   17.80    2.40
   6   2 -10   19.10    2.60
  -6  -2 -10   23.40    2.90
   6  -2  10   15.10    2.40
  -6   2  10   19.10    2.50
   6   2  10   19.80    3.20
   6   2  10   18.20    2.50
  -6   2 -10   18.90    2.50
  -6  -2  10   18.60    2.20
   6  -2 -10   20.00    2.70
  -6  -2  10   19.00    2.70
  -7  -2 -10    2.90    1.50
  -7  -2 -10    4.30    1.80
  -7   2  10    4.40    1.60
   7  -2  10    9.30    1.90
   7   2 -10    6.90    1.60
   7  -2 -10    7.70    2.00
   7   2  10    5.10    2.60
   7   2  10    6.20    1.80
  -7  -2  10    5.10    1.50
  -7   2 -10    5.40    1.70
  -8  -2 -10   81.29    5.90
   8   2 -10   91.09    6.00
  -8   2  10   83.29    5.80
   8  -2  10   84.29    6.00
   8   2  10   81.09    5.80
  -8   2 -10   86.89    6.00
   8  -2 -10   78.69    5.90
  -8  -2  10   84.79    5.90
   9   2 -10   13.00    2.60
  -9  -2 -10    9.90    2.60
  -9   2  10    9.00    2.50
   9  -2  10   11.20    2.70
   9   2  10   11.90    2.70
   9  -2 -10   10.50    2.60
  -9   2 -10    7.50    2.20
  10  -2  10    4.50    2.40
 -10   2  10    5.50    2.20
 -10  -2 -10    3.70    2.40
  10   2  10    2.40    1.60
 -10   2 -10    4.50    1.90
  10  -2 -10    0.50    1.80
   0  -3 -10    0.00    0.50
   0   3  10    0.10    0.60
   0   3  10    0.00    0.40
   0   3 -10   -0.10    0.40
   0   3 -10    0.20    0.60
   0   3 -10    0.80    0.90
   0  -3  10   -0.30    0.60
   0  -3  10   -1.20    0.90
   0  -3 -10   -0.30    0.50
   0  -3  10   -0.50    0.40
   0   3  10   -0.20    0.50
  -1  -3 -10   56.79    3.70
   1  -3  10   62.59    3.60
  -1  -3 -10   61.99    3.30
   1   3 -10   61.79    3.10
   1  -3  10   53.89    3.30
   1   3 -10   64.29    4.10
   1   3 -10   60.49    3.90
   1  -3  10   65.09    4.00
  -1   3  10   53.89    3.70
  -1   3  10   56.99    3.40
   1  -3 -10   61.49    3.70
   1  -3 -10   61.29    3.80
  -1   3 -10   62.19    4.10
  -1  -3  10   60.19    3.30
   1   3  10   54.69    3.70
   1   3  10   57.59    3.50
  -1  -3  10   51.39    3.50
   1   3  10   57.89    3.10
  -1   3 -10   61.99    3.40
  -1  -3  10   61.29    4.00
  -1   3 -10   61.89    3.80
  -1   3 -10   64.59    3.80
   2   3 -10   27.10    1.70
  -2   3  10   27.40    2.30
  -2  -3 -10   27.50    2.30
   2   3 -10   27.00    2.70
   2  -3  10   26.90    2.20
  -2  -3 -10   28.70    1.70
   2  -3  10   28.60    2.20
  -2   3  10   25.00    2.30
   2   3 -10   27.90    3.00
  -2  -3 -10   27.10    2.50
   2  -3  10   29.30    3.10
   2  -3 -10   32.30    2.40
  -2   3 -10   27.30    2.90
   2   3  10   29.90    2.10
  -2   3 -10   27.10    2.20
   2   3  10   28.50    2.40
  -2  -3  10   29.80    2.50
  -2   3 -10   27.60    2.10
   2  -3 -10   26.80    2.60
  -2  -3  10   28.00    2.00
  -2   3 -10   23.70    2.50
  -3  -3 -10  177.48    8.90
   3  -3  10  184.38    8.60
  -3   3  10  193.08    9.10
   3   3 -10  184.48    9.50
   3  -3  10  181.28    8.90
  -3  -3 -10  169.78    9.20
   3   3 -10  178.98    9.10
   3  -3 -10  197.48    9.10
  -3   3 -10  168.88    8.70
  -3   3 -10  192.58    8.90
  -3   3 -10  174.68    8.70
  -3   3 -10  182.68    9.50
  -3  -3  10  174.68    9.20
  -3  -3  10  171.48    8.10
   3   3  10  173.58    8.60
   3   3  10  176.08    9.10
   3  -3 -10  175.78    8.90
  -3  -3  10  186.68    8.50
  -4   3  10  121.49    6.40
   4   3 -10  114.79    6.50
   4   3 -10  119.09    6.90
  -4   3  10  115.59    6.30
   4   3 -10  117.09    5.90
  -4  -3 -10  108.69    6.30
   4  -3  10  111.09    6.30
  -4  -3 -10  100.09    6.40
  -4   3 -10  119.99    6.10
  -4   3 -10  118.49    6.20
   4   3  10  110.99    6.60
   4  -3 -10  118.49    6.50
  -4   3 -10  112.89    6.20
   4   3  10  104.69    6.10
  -4  -3  10  121.29    6.70
  -4   3 -10  118.09    6.90
  -5   3  10   90.89    5.50
  -5   3  10   98.19    5.50
   5   3 -10   88.89    4.90
   5  -3  10   83.39    5.40
  -5  -3 -10   77.09    5.40
  -5  -3 -10   90.99    5.50
   5   3 -10   93.29    5.50
   5   3  10   89.89    5.40
   5   3  10   87.39    6.00
   5  -3 -10   72.99    5.20
  -5  -3  10   93.29    5.80
  -5   3 -10   92.29    5.20
  -5   3 -10   89.59    6.10
  -5   3 -10   88.39    5.30
  -5   3 -10   95.49    5.10
  -6  -3 -10   73.89    5.10
   6  -3  10   84.49    5.40
   6   3 -10   75.89    4.70
   6   3 -10   76.79    5.10
  -6  -3 -10   74.99    5.30
  -6   3  10   79.59    5.20
  -6   3 -10   78.49    7.60
   6  -3 -10   75.59    5.30
  -6   3 -10   83.79    4.90
  -6   3 -10   72.39    5.00
  -6   3 -10   86.29    5.10
  -6  -3  10   79.59    5.50
   6   3  10   75.59    5.10
   7   3 -10   23.20    2.90
  -7   3  10   18.90    2.70
  -7  -3 -10   19.40    2.90
  -7  -3 -10   18.30    2.80
   7  -3  10   21.10    3.00
  -7   3 -10   21.30    3.00
   7   3  10   22.00    3.00
   7  -3 -10   14.70    2.50
   7   3  10   29.30    4.20
  -7  -3  10   19.20    3.00
  -8   3  10   64.89    5.10
  -8  -3 -10   54.49    4.80
   8  -3  10   66.59    5.30
   8   3 -10   59.39    4.80
   8  -3 -10   67.69    5.10
  -8   3 -10   60.29    4.90
   8   3  10   64.89    5.10
  -8  -3  10   64.49    5.30
  -9   3  10   27.00    3.70
  -9  -3 -10   26.80    3.70
   9  -3  10   26.60    3.90
  -9   3 -10   32.10    4.30
   9  -3 -10   30.70    4.10
  -9  -3  10   34.40    4.40
   9   3  10   32.00    4.20
 -10  -3 -10   28.40    4.20
 -10   3  10   32.50    4.40
  10  -3  10   28.40    4.30
  10  -3 -10   27.80    4.20
  10   3  10   28.90    4.30
 -10   3 -10   30.10    4.20
   0   4  10   32.30    2.20
   0  -4  10   32.50    2.30
   0  -4 -10   29.20    2.40
   0   4 -10   34.40    2.00
   0  -4  10   26.60    2.40
   0   4  10   31.90    2.70
   0   4 -10   32.70    2.70
   0   4 -10   32.50    3.20
   0   4  10   34.40    2.00
   0  -4 -10   32.30    2.30
   0   4  10   35.10    2.50
   1  -4  10  196.08    9.50
  -1   4  10  202.08    8.80
  -1   4  10  205.68    9.90
   1   4 -10  212.98   10.20
  -1  -4 -10  213.78   10.10
   1   4 -10  211.78   10.50
  -1  -4 -10  210.28    9.40
  -1   4  10  201.08    9.30
   1  -4  10  199.48    9.50
   1  -4 -10  189.68    9.80
  -1  -4  10  192.68    9.30
   1   4  10  222.18    9.20
  -1   4 -10  210.68   10.50
  -1   4 -10  211.88    9.40
   1  -4 -10  205.58   10.00
   1   4  10  188.28    9.30
  -1  -4  10  169.88    9.60
  -1   4 -10  201.68   10.10
   1   4  10  204.88   10.00
  -1   4 -10  208.58   10.10
   2  -4  10  187.68    9.10
   2   4 -10  201.08    9.80
   2  -4  10  185.98    8.80
  -2   4  10  177.78    9.20
  -2  -4 -10  188.98    9.30
  -2  -4 -10  187.08    9.60
   2   4 -10  174.78    9.40
  -2   4  10  183.58    8.90
   2  -4 -10  183.88    9.30
  -2  -4  10  184.78    8.80
   2   4  10  187.58    9.10
  -2   4 -10  191.68    9.20
  -2   4 -10  184.38    9.70
  -2  -4  10  178.08    9.30
   2  -4 -10  184.58    9.30
  -2   4 -10  187.58    8.80
  -2   4 -10  200.68    9.40
   2   4  10  196.88    8.80
   3  -4  10  342.67   14.80
  -3   4  10  353.06   15.40
   3   4 -10  332.07   16.10
   3   4 -10  349.57   15.80
   3  -4  10  331.27   15.30
  -3  -4 -10  328.87   15.60
  -3  -4 -10  316.17   15.80
  -3  -4  10  299.37   15.50
  -3   4 -10  346.37   15.30
   3   4  10  329.57   15.00
   3   4  10  324.07   15.30
  -3   4 -10  344.77   15.50
   3  -4 -10  343.07   15.70
  -3  -4  10  322.57   14.90
   3  -4 -10  313.97   15.50
  -3   4 -10  350.56   15.60
  -3   4 -10  331.67   16.10
   4   4 -10   38.70    2.80
   4   4 -10   33.40    3.00
  -4   4  10   37.40    3.10
  -4   4  10   38.30    3.10
  -4  -4 -10   33.70    3.10
  -4  -4 -10   30.30    3.20
   4   4 -10   42.60    4.30
   4  -4  10   36.30    3.00
   4  -4 -10   36.10    3.20
  -4   4 -10   39.70    4.00
  -4   4 -10   39.40    3.00
  -4   4 -10   42.10    3.10
  -4  -4  10   39.50    3.40
   4   4  10   39.70    3.00
  -4   4 -10   38.60    3.10
   4   4  10   33.20    3.40
   5   4 -10   41.00    4.60
   5   4 -10   35.80    3.20
  -5   4  10   41.30    3.20
  -5  -4 -10   37.50    3.60
   5  -4  10   33.30    3.40
  -5  -4 -10   38.20    4.00
  -5   4  10   37.60    4.10
   5   4 -10   40.40    2.90
   5  -4 -10   32.60    3.60
  -5   4 -10   38.60    4.30
   5   4  10   35.90    3.80
  -5   4 -10   39.20    3.30
  -5   4 -10   38.60    3.10
   5   4  10   33.90    3.30
  -5  -4  10   39.50    3.50
  -5   4 -10   35.50    3.10
   6  -4  10   31.80    3.40
  -6   4  10   38.60    3.80
  -6  -4 -10   30.60    3.60
   6   4 -10   41.30    3.10
  -6  -4 -10   40.80    4.00
   6   4 -10   30.70    3.50
   6   4  10   41.90    4.50
  -6  -4  10   38.00    4.10
   6   4  10   38.20    3.80
  -6   4 -10   44.10    3.40
  -6   4 -10   40.50    3.40
  -6   4 -10   40.00    4.70
   6  -4 -10   40.60    4.10
  -6   4 -10   35.90    3.60
  -7  -4 -10   65.29    5.00
   7  -4  10   58.99    4.80
  -7  -4 -10   60.39    4.60
   7   4 -10   58.29    4.60
  -7   4  10   58.09    4.60
  -7   4 -10   64.49    4.70
   7   4  10   59.99    4.60
   7   4  10   64.99    6.20
   7  -4 -10   59.59    4.90
  -7  -4  10   63.09    4.90
   8  -4  10   27.40    3.80
  -8  -4 -10   23.80    3.50
  -8  -4 -10   24.00    3.60
  -8   4  10   29.10    3.70
   8   4 -10   26.60    3.50
   8   4  10   28.70    3.50
  -8  -4  10   30.80    3.90
  -8   4 -10   24.60    3.40
   8  -4 -10   20.30    3.30
   8   4  10   20.30    4.10
   9  -4  10   24.70    3.80
  -9  -4 -10   18.90    3.30
  -9   4  10   17.00    3.20
   9  -4 -10   15.60    3.10
  -9  -4  10   20.40    3.60
   9   4  10   25.50    3.80
  -9   4 -10   16.10    3.10
 -10   4  10    7.00    2.70
 -10  -4 -10    9.50    3.00
  10  -4  10    5.70    3.00
  10   4  10    5.70    2.00
 -10   4 -10    7.40    2.40
  10  -4 -10    2.80    2.20
   0  -5 -10    1.10    0.60
   0   5 -10   -0.20    0.60
   0   5  10    0.50    0.50
   0   5 -10    0.20    0.70
   0  -5  10   -0.10    0.60
   0   5  10    0.20    0.70
   0  -5 -10    1.70    0.80
   0   5  10   -0.10    0.50
   0  -5  10    0.90    0.70
   0   5 -10    1.00    1.00
   1   5 -10    1.50    1.10
  -1  -5 -10    0.50    0.80
  -1  -5 -10    0.50    0.80
  -1   5  10    1.50    0.90
  -1  -5 -10    1.30    0.70
  -1   5  10    0.00    0.50
   1  -5  10    2.00    0.90
   1  -5  10    0.40    0.60
   1   5 -10    1.20    1.00
  -1   5 -10    2.20    0.90
   1  -5 -10    0.90    0.70
  -1   5 -10    0.80    0.70
  -1   5 -10    2.40    1.20
   1  -5 -10   -0.40    0.60
  -1  -5  10    0.10    0.60
   1   5  10   -0.10    0.50
   1   5  10    0.60    0.70
  -1  -5  10   -0.90    0.50
  -1   5 -10    1.40    0.90
  -2  -5 -10   22.70    2.50
   2  -5  10   15.30    2.00
   2  -5  10   17.20    1.90
  -2   5  10   15.50    2.10
  -2  -5 -10   19.60    2.50
   2   5 -10   18.40    2.60
  -2   5  10   16.60    1.80
   2   5 -10   18.40    2.50
   2   5  10   15.20    1.80
  -2   5 -10   17.40    2.30
   2  -5 -10   19.80    2.30
  -2   5 -10   18.00    1.80
   2  -5 -10   19.80    2.40
   2   5  10   20.10    2.10
  -2   5 -10   19.70    2.30
  -2  -5  10   15.50    2.10
  -2   5 -10   16.50    2.50
  -2  -5  10   15.60    1.90
  -3  -5 -10   30.80    3.10
   3   5 -10   31.40    3.30
   3   5 -10   25.20    3.10
  -3   5  10   31.70    2.70
  -3  -5 -10   27.80    3.30
   3  -5  10   29.10    3.00
  -3   5 -10   27.10    3.20
   3  -5 -10   31.90    2.80
  -3  -5  10   27.20    3.10
   3   5  10   27.80    2.90
  -3   5 -10   29.00    2.90
  -3  -5  10   28.00    2.40
  -3   5 -10   27.00    2.30
  -3   5 -10   28.10    2.90
   3  -5 -10   30.60    3.00
   3   5  10   31.50    2.60
  -4  -5 -10   99.19    6.10
   4   5 -10  107.49    6.80
  -4   5  10  102.79    5.70
   4   5 -10  109.89    5.90
   4   5 -10  109.79    6.50
  -4   5  10   99.79    5.80
  -4  -5 -10   97.29    6.40
   4  -5  10   92.79    5.70
  -4   5 -10  115.09    6.40
   4  -5 -10   99.79    6.30
   4   5  10   95.79    5.90
  -4   5 -10  111.29    6.20
  -4  -5  10   99.29    6.20
   4   5  10   97.09    5.60
  -4   5 -10  113.09    6.00
  -4   5 -10  103.99    6.80
   5   5 -10   13.30    2.20
  -5   5  10   18.30    2.50
   5   5 -10   19.10    3.10
   5  -5  10   15.20    2.30
  -5  -5 -10   17.60    2.70
   5   5 -10   21.00    2.40
  -5  -5 -10    6.80    1.70
  -5   5 -10   18.80    2.40
   5  -5 -10   17.00    2.50
  -5   5 -10   16.00    2.30
  -5   5 -10   19.60    2.50
   5   5  10   20.80    2.60
  -5  -5  10   22.10    3.10
   5   5  10   16.00    2.60
  -5   5 -10   15.60    3.10
  -6  -5 -10    3.70    1.60
   6   5 -10    3.50    1.30
   6  -5  10    6.20    1.70
   6   5 -10    5.00    1.60
  -6   5  10    6.40    1.70
  -6  -5 -10    5.20    1.80
  -6  -5  10    6.40    1.90
   6  -5 -10    2.50    1.50
  -6   5 -10    5.40    2.40
   6   5  10    4.00    1.40
  -6   5 -10    6.40    1.70
   6   5  10    1.10    1.60
  -6   5 -10    7.70    1.80
  -6   5 -10    5.20    1.50
  -7  -5 -10   32.50    3.70
  -7   5  10   34.60    3.90
   7   5 -10   36.20    3.70
   7   5 -10   37.00    3.90
  -7  -5 -10   30.70    4.00
   7  -5  10   28.10    3.70
   7   5  10   25.90    4.00
  -7   5 -10   34.00    3.80
  -7   5 -10   30.80    4.80
   7  -5 -10   32.60    4.00
   7   5  10   32.20    3.60
  -7   5 -10   35.60    3.90
  -7  -5  10   37.70    4.30
  -7   5 -10   31.70    3.70
  -8  -5 -10   50.69    5.00
   8  -5  10   50.69    5.10
  -8  -5 -10   49.00    5.10
  -8   5  10   52.69    5.30
   8  -5 -10   45.60    5.00
   8   5  10   47.60    5.80
  -8  -5  10   49.00    5.40
  -8   5 -10   53.09    5.10
   8   5  10   54.89    5.20
  -9  -5 -10   -0.60    1.50
   9  -5  10   -1.30    1.60
  -9   5  10   -0.10    1.80
   9  -5 -10    0.00    1.60
  -9   5 -10    2.30    1.70
   9   5  10    1.30    1.50
  -9  -5  10    0.30    2.00
 -10  -5 -10   20.30    3.80
 -10   5  10   25.50    4.50
  10  -5  10   21.60    4.30
 -10  -5  10   18.70    4.00
  10   5  10   26.70    4.00
  10  -5 -10   24.30    4.00
 -10   5 -10   22.30    3.90
   0   6 -10   24.50    2.80
   0  -6  10   19.60    2.20
   0  -6 -10   31.80    2.40
   0   6  10   23.20    1.70
   0   6 -10   25.20    3.10
   0  -6  10   24.70    2.60
   0  -6 -10   26.60    2.80
   0   6  10   23.60    1.90
   0   6 -10   25.50    3.00
  -1  -6 -10  419.46   17.30
   1   6 -10  386.66   18.10
   1   6 -10  369.86   18.10
  -1  -6 -10  408.16   18.30
  -1   6  10  364.26   17.10
  -1  -6 -10  382.66   17.80
   1  -6  10  345.57   16.80
  -1   6  10  370.06   16.10
   1  -6  10  408.86   16.80
  -1   6 -10  365.46   17.80
   1  -6 -10  406.96   17.70
  -1  -6  10  334.77   16.90
   1   6  10  392.96   16.40
   1  -6 -10  375.46   17.80
  -1   6 -10  352.76   18.00
  -1   6 -10  390.96   18.10
  -1  -6  10  368.86   16.80
   1   6  10  341.67   16.20
  -2   6  10   44.30    2.90
  -2   6  10   47.10    3.50
  -2  -6 -10   44.00    3.70
   2  -6  10   44.60    3.20
   2   6 -10   49.50    3.80
   2  -6  10   42.60    3.30
   2   6 -10   46.20    4.00
  -2  -6 -10   50.09    3.60
  -2   6 -10   45.80    3.60
   2   6  10   49.90    3.20
  -2  -6  10   52.09    3.40
   2  -6 -10   46.70    3.50
  -2   6 -10   49.00    3.50
   2   6  10   47.60    3.10
   2  -6 -10   51.69    3.60
  -2  -6  10   43.40    3.50
  -2   6 -10   54.29    4.10
   3   6 -10   87.89    5.80
   3   6 -10   77.69    5.10
  -3  -6 -10   85.39    5.10
  -3   6  10   78.19    4.80
   3  -6  10   69.29    4.70
  -3  -6 -10   75.29    5.30
  -3   6 -10   81.29    4.60
   3   6  10   79.29    4.60
  -3   6 -10   81.99    5.50
   3  -6 -10   76.49    4.90
  -3  -6  10   75.79    4.60
  -3  -6  10   77.89    5.10
  -3   6 -10   72.19    4.90
   3  -6 -10   71.99    5.00
  -3   6 -10   75.29    5.10
   3   6  10   66.49    4.50
  -4   6  10   14.60    2.30
   4   6 -10   16.90    2.50
   4  -6  10   16.00    2.20
   4   6 -10   18.50    3.00
  -4  -6 -10   23.10    2.70
   4   6 -10   20.60    2.50
  -4  -6 -10   14.60    2.40
  -4   6 -10   16.70    2.40
  -4   6 -10   16.80    3.00
  -4   6 -10   23.00    2.50
  -4  -6  10   17.80    2.60
  -4   6 -10   17.10    2.50
   4   6  10   15.50    2.30
   4  -6 -10   16.80    2.60
   4   6  10   22.50    2.80
   5   6 -10  112.49    6.20
  -5  -6 -10  102.29    6.80
  -5   6  10   98.69    6.10
   5  -6  10  105.79    6.30
   5   6 -10   96.09    6.30
   5   6 -10  102.59    7.20
  -5  -6 -10  100.09    6.30
   5   6  10   99.09    6.60
   5  -6 -10  107.59    6.70
  -5   6 -10  113.29    6.50
  -5   6 -10  103.99    6.20
  -5   6 -10  107.59    7.30
  -5  -6  10  105.69    6.70
  -5   6 -10  109.89    6.60
   5   6  10   97.79    6.00
  -6  -6 -10   16.60    2.60
  -6   6  10   15.60    2.70
  -6  -6 -10   12.70    2.70
   6   6 -10   22.10    3.00
   6  -6  10   21.40    3.00
   6   6 -10   18.10    2.50
   6   6 -10   19.70    3.70
  -6  -6  10   11.50    2.40
   6   6  10   18.20    3.10
   6  -6 -10   18.60    3.00
  -6   6 -10   14.50    2.60
  -6   6 -10   12.40    2.30
  -6   6 -10   17.40    2.60
  -6   6 -10   18.00    3.30
   6   6  10   17.10    2.60
  -7   6  10   91.49    6.40
   7  -6  10   98.79    6.60
   7   6 -10   94.89    6.30
  -7  -6 -10   92.59    6.80
   7   6 -10   89.89    6.00
  -7  -6 -10   94.79    6.30
   7   6  10  101.99    7.20
  -7   6 -10  101.69    7.70
  -7   6 -10  101.79    6.50
  -7   6 -10   89.49    6.30
   7   6  10  101.59    6.50
   7  -6 -10   92.79    6.60
  -7   6 -10   99.39    6.40
  -7  -6  10   94.59    6.90
   8  -6  10    1.80    1.70
  -8  -6 -10    1.80    1.80
  -8  -6 -10    3.00    1.70
  -8   6  10   -0.70    1.40
   8   6  10    3.30    1.80
  -8  -6  10    0.10    1.40
  -8   6 -10    1.90    1.60
   8   6  10    2.20    2.30
   8  -6 -10   -0.70    1.60
   9  -6  10    8.70    2.80
  -9  -6 -10    6.20    2.40
  -9   6  10    2.50    2.20
  -9  -6 -10   12.10    3.20
  -9  -6  10    9.20    2.70
   9   6  10   13.20    4.10
   9  -6 -10    8.40    2.60
   9   6  10    9.80    2.70
  -9   6 -10   11.10    2.80
   0  -7 -10   -0.30    0.90
   0  -7  10    0.00    0.80
   0   7 -10   -0.40    1.10
   0  -7 -10    0.00    0.70
   0   7 -10   -2.10    0.80
   0   7 -10    1.10    1.00
   0   7  10   -0.60    0.80
   0  -7 -10   -1.00    0.70
   0  -7  10   -1.40    0.60
   0   7  10    0.10    0.50
   1  -7  10    4.90    1.40
   1   7 -10    6.50    1.60
  -1  -7 -10    7.60    2.00
   1   7 -10    5.10    1.50
   1   7 -10    6.60    1.90
  -1   7  10    5.90    1.60
  -1  -7 -10    3.60    1.30
   1  -7  10    6.50    1.40
  -1   7  10    4.80    0.80
   1   7  10    5.00    1.20
   1  -7 -10    8.40    1.70
  -1  -7  10    3.30    1.20
   1   7  10    6.00    1.10
  -1  -7  10    5.60    1.50
   1  -7 -10    5.30    1.40
  -1   7 -10    3.90    1.40
  -1   7 -10    3.30    1.50
  -1   7 -10    7.20    1.80
  -2   7  10  124.89    6.10
   2  -7  10  115.69    6.90
  -2  -7 -10  121.49    6.90
   2   7 -10  118.89    7.20
   2   7 -10  120.79    7.40
  -2   7  10  134.19    7.20
  -2  -7 -10  118.59    7.30
  -2   7 -10  142.49    7.60
   2  -7 -10  121.79    6.90
  -2   7 -10  114.19    7.10
   2   7  10  121.69    6.60
  -2   7 -10  122.99    7.00
  -2  -7  10  122.89    6.90
   2   7  10  131.89    6.50
  -2  -7  10  122.99    7.20
   2  -7 -10  124.29    6.90
  -3  -7 -10   82.69    5.30
  -3  -7 -10   78.09    5.70
   3  -7  10   84.29    5.10
   3   7 -10   90.99    5.70
  -3   7  10   75.69    5.00
   3   7 -10   79.69    5.80
  -3   7 -10   77.59    5.40
   3   7  10   67.99    4.50
   3  -7 -10   89.19    5.40
   3  -7 -10   79.69    5.30
   3   7  10   78.69    4.70
  -3   7 -10   81.39    5.70
  -3   7 -10   83.89    5.50
  -3  -7  10   73.39    5.20
  -3  -7  10   71.59    4.70
   4   7 -10    3.50    1.40
   4   7 -10    4.50    1.50
  -4  -7 -10    5.00    1.60
  -4   7  10    4.10    1.50
   4  -7  10    4.10    1.60
  -4  -7 -10    1.20    1.30
   4   7 -10    3.20    1.90
  -4  -7  10    5.30    1.40
  -4  -7  10    5.50    1.90
  -4   7 -10    2.20    1.40
   4  -7 -10    4.20    1.50
   4   7  10    2.80    1.10
  -4   7 -10    1.80    1.60
  -4   7 -10    3.70    1.50
   4   7  10    2.80    1.40
  -5  -7 -10    5.50    1.70
   5  -7  10    1.20    1.00
  -5   7  10    4.80    1.50
  -5  -7 -10    4.20    1.70
   5   7 -10    3.20    1.30
   5   7 -10    5.80    1.80
   5   7 -10    4.00    2.20
  -5   7 -10    2.20    1.80
  -5   7 -10    5.10    1.50
   5   7  10    2.90    1.30
  -5   7 -10    1.90    1.50
   5   7  10    3.50    1.70
  -5   7 -10    2.00    1.50
  -5  -7  10    2.10    1.50
   5  -7 -10    1.60    1.50
   6   7 -10   27.30    3.40
  -6   7  10   25.10    3.20
   6   7 -10   34.10    4.70
  -6  -7 -10   28.30    3.50
  -6  -7 -10   29.20    3.90
   6   7 -10   21.60    3.00
   6  -7  10   29.10    3.60
   6   7  10   31.10    3.70
  -6   7 -10   29.20    4.30
  -6  -7  10   29.40    4.00
  -6   7 -10   26.40    3.40
  -6   7 -10   33.70    3.90
   6   7  10   28.00    3.90
   6  -7 -10   26.60    3.60
  -6   7 -10   28.00    3.40
   7   7 -10   34.60    3.90
   7  -7  10   36.10    4.20
  -7  -7 -10   30.30    4.40
  -7   7  10   27.00    3.70
  -7  -7 -10   36.50    4.10
  -7   7 -10   34.10    4.00
   7  -7 -10   31.50    4.00
  -7  -7  10   30.80    4.30
  -7   7 -10   33.20    4.10
  -7   7 -10   36.10    4.00
   7   7  10   39.90    4.80
   7   7  10   28.00    3.60
  -7   7 -10   29.00    4.60
   8   7 -10   19.00    3.20
  -8   7  10   15.70    3.00
  -8  -7 -10   23.00    3.90
   8  -7  10   15.40    3.10
  -8  -7 -10   19.80    3.40
   8   7  10   18.10    3.20
  -8   7 -10   22.90    3.60
  -8   7 -10   13.70    3.10
  -8   7 -10   18.50    3.50
  -8  -7  10   22.30    3.80
   8   7  10   24.70    4.40
   8  -7 -10   17.60    3.50
  -9   7  10   16.90    3.60
  -9  -7 -10   18.50    3.70
   9  -7  10   11.60    3.20
   9   7  10   17.00    3.20
  -9  -7  10   20.10    3.90
   9   7  10   16.60    4.50
   9  -7 -10   18.70    3.60
  -9   7 -10   23.60    3.70
   0   8 -10  147.99    8.40
   0   8 -10  150.28    8.50
   0  -8 -10  138.99    8.30
   0  -8 -10  153.58    7.70
   0   8  10  141.19    6.60
   0  -8 -10  146.29    8.00
   0  -8  10  145.79    7.80
   0   8 -10  139.19    8.10
   0  -8  10  139.19    7.60
   1  -8  10   39.80    3.20
  -1   8  10   35.10    2.10
   1   8 -10   33.30    3.60
   1   8 -10   34.70    3.70
  -1  -8 -10   41.60    3.40
  -1  -8 -10   42.50    4.30
  -1   8  10   37.80    3.40
   1  -8  10   34.50    3.40
   1   8 -10   37.50    4.00
   1  -8 -10   39.70    3.20
  -1   8 -10   37.70    3.80
   1  -8 -10   32.80    3.40
  -1   8 -10   38.60    4.00
  -1   8 -10   36.10    4.00
   1   8  10   36.40    2.90
  -1  -8  10   32.20    3.30
  -1  -8  10   43.50    3.40
   1   8  10   35.20    2.40
   2   8 -10   24.60    3.20
   2   8 -10   32.80    3.80
  -2  -8 -10   27.70    3.50
  -2  -8 -10   28.20    3.10
  -2   8  10   27.00    3.10
   2  -8  10   26.60    3.10
  -2   8  10   27.80    2.00
  -2   8 -10   23.50    3.30
   2  -8 -10   31.70    3.30
   2   8  10   27.30    2.30
  -2   8 -10   27.80    3.30
   2   8  10   27.10    2.80
   2  -8 -10   27.90    3.20
  -2  -8  10   29.60    3.10
  -2   8 -10   26.90    3.20
  -2  -8  10   29.80    3.40
   3  -8  10   13.60    2.30
  -3  -8 -10   21.90    3.20
   3   8 -10   24.30    3.50
  -3  -8 -10   22.60    2.80
   3   8 -10   21.80    3.00
  -3  -8  10   22.90    2.80
  -3   8 -10   22.40    3.00
  -3   8 -10   24.10    3.40
   3  -8 -10   23.50    3.00
   3  -8 -10   25.20    3.20
  -3   8 -10   21.10    3.00
  -3  -8  10   22.70    3.10
   3   8  10   23.00    2.50
   3   8  10   24.10    2.80
   4  -8  10    1.60    1.30
  -4  -8 -10    2.30    1.40
   4   8 -10    3.40    1.60
   4   8 -10    1.00    1.60
  -4  -8 -10    0.20    1.10
  -4   8  10    1.20    1.20
   4   8  10    4.30    1.40
  -4   8 -10    3.60    1.80
  -4  -8  10    4.20    1.40
   4  -8 -10    0.90    1.30
  -4   8 -10    2.30    1.60
  -4   8 -10    2.10    1.70
   4   8  10    0.40    1.00
  -4  -8  10    2.30    1.60
   5   8 -10   30.60    3.70
  -5  -8 -10   27.10    3.70
  -5  -8 -10   20.00    3.00
   5  -8  10   26.10    3.40
  -5   8  10   20.90    3.00
   5   8 -10   25.70    4.00
   5   8 -10   20.30    3.00
  -5  -8  10   17.40    3.10
  -5   8 -10   23.70    3.70
  -5   8 -10   25.00    3.50
  -5   8 -10   24.50    3.50
   5   8  10   19.20    3.00
   5  -8 -10   23.50    3.40
   5   8  10   25.90    3.10
   6   8 -10   21.10    3.10
  -6  -8 -10   22.90    3.70
  -6   8  10   23.40    3.20
   6   8 -10   21.00    3.30
   6  -8  10   17.10    2.90
  -6  -8 -10   21.20    3.10
   6   8 -10   26.60    4.30
  -6   8 -10   22.60    3.60
  -6   8 -10   27.40    3.70
   6  -8 -10   17.90    3.10
  -6  -8  10   21.20    3.50
  -6   8 -10   26.00    4.20
   6   8  10   20.80    3.10
   6   8  10   21.90    3.50
  -7   8  10    7.40    2.40
   7   8 -10    6.10    2.20
  -7  -8 -10    8.00    2.70
   7  -8  10    7.80    2.30
  -7  -8 -10    6.80    2.40
   7  -8 -10    4.40    2.00
  -7   8 -10    5.00    2.20
  -7   8 -10   13.20    3.60
  -7  -8  10    9.90    2.80
  -7   8 -10    9.30    2.50
   7   8  10    8.30    2.40
   7   8  10   11.00    3.10
  -7   8 -10    5.00    2.10
   8  -8  10   13.90    3.10
   8   8 -10   11.80    2.90
  -8  -8 -10   11.70    3.10
  -8   8  10   12.70    2.70
   8   8  10   19.30    4.00
  -8   8 -10   13.90    3.10
  -8  -8  10   17.00    3.60
  -8   8 -10   18.60    4.30
  -8   8 -10   15.40    3.20
   8  -8 -10    9.80    2.60
   8   8  10   16.40    3.10
  -8   8 -10   15.60    3.20
  -9  -8 -10    3.80    2.40
  -9   8  10    2.20    2.20
   9  -8  10   -0.30    2.60
   9  -8 -10    1.80    2.30
   9   8  10    5.20    3.60
  -9  -8  10    6.30    3.00
   9   8  10    5.10    2.30
  -9   8 -10    3.10    2.30
   0  -9 -10   -1.90    0.80
   0  -9 -10   -0.50    1.10
   0   9 -10   -0.30    0.90
   0  -9  10   -0.70    0.90
   0  -9  10    0.90    1.10
   0   9  10   -0.50    0.40
   0   9 -10    0.10    1.10
   0   9 -10   -0.50    1.20
  -1   9  10   22.70    1.50
   1   9 -10   18.10    2.80
  -1  -9 -10   27.60    3.70
   1   9 -10   27.60    3.50
   1   9 -10   20.70    3.00
  -1  -9 -10   23.90    3.00
   1  -9  10   31.10    3.40
  -1   9  10   28.10    3.30
   1   9  10   22.20    1.80
  -1   9 -10   25.40    3.20
   1  -9 -10   25.30    3.00
  -1  -9  10   23.50    3.00
   1   9  10   21.70    2.70
  -1   9 -10   22.80    3.20
  -1  -9  10   20.80    2.90
   1  -9 -10   25.30    3.00
  -1   9 -10   20.00    3.10
  -2   9  10   39.70    4.20
  -2  -9 -10   41.20    3.90
   2  -9  10   47.60    3.70
   2   9 -10   38.60    4.40
   2   9 -10   40.60    4.20
  -2   9  10   36.90    2.40
  -2  -9 -10   36.10    4.20
  -2   9 -10   41.70    4.40
   2  -9 -10   44.50    4.20
  -2   9 -10   45.10    4.70
   2   9  10   36.70    2.80
  -2  -9  10   38.40    4.10
   2   9  10   43.80    3.30
  -2  -9  10   35.90    3.80
   2  -9 -10   35.10    3.80
  -2   9 -10   36.70    4.20
  -3  -9 -10    4.00    1.70
  -3  -9 -10    2.40    1.50
   3  -9  10    5.80    1.70
   3   9 -10    4.40    1.60
   3   9 -10    1.00    1.70
  -3   9 -10    1.70    1.70
  -3   9 -10    4.40    1.80
  -3  -9  10    3.40    1.30
   3   9  10    5.10    1.30
   3  -9 -10    4.50    1.60
  -3   9 -10    5.40    2.10
   3   9  10    4.00    1.30
   3  -9 -10    3.10    1.50
  -3  -9  10    2.30    1.60
   4  -9  10    5.40    1.80
  -4  -9 -10    4.80    2.00
  -4   9  10    4.50    1.70
   4   9 -10    7.90    2.40
  -4  -9 -10    8.30    2.00
   4   9 -10    6.40    2.00
  -4   9 -10    4.10    2.00
  -4   9 -10    7.20    2.40
   4  -9 -10    5.60    2.00
  -4  -9  10    8.10    2.30
   4   9  10    5.60    1.70
  -4   9 -10    5.90    2.10
   4   9  10    4.20    1.50
  -4  -9  10    7.80    1.90
  -5  -9 -10   58.89    4.50
   5   9 -10   46.50    4.90
   5   9 -10   51.09    5.60
   5   9 -10   41.60    4.50
  -5   9  10   38.60    4.10
   5  -9  10   42.80    4.40
  -5  -9 -10   37.00    4.80
  -5   9 -10   33.70    4.20
  -5   9 -10   45.80    5.00
  -5   9 -10   53.99    5.60
   5   9  10   39.10    4.20
   5  -9 -10   37.80    4.60
   5   9  10   39.30    4.10
  -5  -9  10   42.10    4.90
  -6   9  10    0.20    1.40
   6  -9  10    0.00    1.60
   6   9 -10   -3.30    1.70
  -6  -9 -10    4.00    2.10
   6   9 -10   -0.50    1.30
  -6   9 -10   -1.20    1.40
  -6  -9  10    1.40    1.80
   6   9  10   -0.10    1.30
  -6   9 -10    2.50    2.30
   6   9  10    0.20    1.70
   6  -9 -10   -1.40    1.30
  -6   9 -10    0.80    1.70
   7  -9  10   17.20    3.30
  -7  -9 -10   10.90    3.10
  -7   9  10   12.30    2.90
   7   9 -10   21.00    3.30
   7   9 -10   23.10    4.80
  -7  -9  10   19.50    3.80
  -7   9 -10   26.30    4.00
  -7   9 -10   16.50    3.40
   7   9  10   21.10    3.30
   7   9  10   18.30    3.70
  -7   9 -10   21.90    4.50
   7  -9 -10   18.30    3.60
  -8   9  10    0.00    1.40
   8   9 -10   -0.40    1.70
   8  -9  10   -0.10    2.20
  -8  -9 -10    0.90    2.00
  -8   9 -10    1.00    2.10
  -8   9 -10   -2.50    3.20
  -8  -9  10   -1.90    1.40
   8   9  10    0.60    1.90
   8  -9 -10   -1.20    1.00
  -8   9 -10   -3.40    2.00
   8   9  10    1.70    3.00
   0  10 -10   62.59    4.90
   0 -10  10   45.20    4.50
   0  10  10   50.89    2.70
   0  10 -10   56.29    4.90
   0  10 -10   50.79    5.20
   0 -10 -10   52.99    4.70
   0 -10 -10   60.89    4.50
  -1 -10 -10   23.70    3.50
   1  10 -10   24.80    3.60
   1 -10  10   28.50    3.40
   1  10 -10   23.30    3.30
  -1  10  10   26.60    3.40
  -1 -10 -10   26.50    3.20
   1  10 -10   21.10    3.30
  -1  10  10   24.60    1.50
  -1 -10  10   25.30    3.30
  -1  10 -10   19.70    3.00
   1  10  10   22.50    1.80
   1 -10 -10   22.10    3.00
  -1  10 -10   25.50    3.70
  -1  10 -10   20.10    3.20
  -1 -10  10   21.60    3.10
   1 -10 -10   17.00    2.60
   2 -10  10    5.10    1.60
  -2 -10 -10   13.60    2.40
  -2 -10 -10    8.10    2.40
  -2  10  10    6.90    1.00
   2  10 -10    9.70    2.60
   2  10 -10    7.50    2.20
   2  10  10    7.10    1.40
  -2 -10  10    7.00    2.10
  -2 -10  10    9.90    2.10
   2 -10 -10    8.00    2.10
  -2  10 -10    7.10    2.10
  -2  10 -10    6.80    1.90
   2  10  10   10.60    2.10
   2 -10 -10   12.50    2.30
  -2  10 -10   10.60    2.50
   3  10 -10   14.30    3.00
   3 -10  10   10.50    2.10
  -3 -10 -10   16.10    3.20
  -3 -10 -10   16.60    2.80
  -3  10  10   13.10    2.50
   3  10 -10   13.50    2.90
  -3  10 -10   17.00    3.20
   3  10  10   10.10    1.80
  -3  10 -10   10.80    2.60
  -3 -10  10   18.10    3.10
  -3  10 -10   15.30    3.10
   3  10  10   11.50    2.30
  -3 -10  10   19.50    2.90
   3 -10 -10    5.80    2.00
   4  10 -10   14.80    3.30
   4  10 -10   10.70    2.60
   4 -10  10    8.80    2.30
  -4  10  10    9.70    2.20
  -4 -10 -10   12.70    2.90
  -4  10 -10   11.40    2.80
   4  10  10   11.50    2.20
  -4 -10  10   12.60    2.90
   4 -10 -10    9.20    2.40
  -4 -10  10   10.80    2.40
  -4  10 -10    8.70    2.70
   4  10  10   11.90    2.20
  -4  10 -10   12.10    2.80
   5 -10  10    1.80    1.70
  -5 -10 -10   -0.80    1.70
   5  10 -10    0.60    1.40
  -5  10  10    0.60    1.50
   5  10 -10    1.60    2.30
  -5  10 -10    1.40    1.70
   5  10  10   -0.10    1.50
  -5  10 -10   -0.40    2.00
  -5  10 -10   -1.60    1.70
   5 -10 -10    1.80    1.80
   5  10  10    0.60    1.50
  -5 -10  10    1.50    1.80
  -6  10  10   -0.10    1.40
   6  10 -10    0.60    1.50
   6  10 -10    0.30    2.40
  -6 -10 -10    0.70    1.60
   6 -10  10    0.10    1.80
  -6  10 -10    2.50    2.80
  -6 -10  10    0.90    2.10
   6  10  10    3.30    2.20
   6 -10 -10    1.00    1.70
  -6  10 -10    0.50    2.00
  -6  10 -10    1.60    1.80
   6  10  10   -1.90    1.30
  -7 -10 -10   13.40    3.30
  -7  10  10    9.60    2.40
   7  10 -10    4.00    3.30
   7 -10  10    7.70    2.70
   7  10 -10    9.80    2.70
  -7  10 -10    7.20    2.80
   7  10  10    9.10    2.40
  -7  10 -10    8.60    2.80
  -7 -10  10    7.00    2.30
   7 -10 -10   16.80    3.70
  -7  10 -10    8.90    3.70
   7  10  10   10.90    3.50
   0  11  10    0.20    0.50
   0 -11  10   -1.40    1.10
   0  11 -10   -0.50    1.80
   0  11 -10    0.40    1.30
   0  11 -10    1.00    1.50
   0 -11 -10   -0.50    1.50
   0 -11 -10    0.00    1.40
  -1  11  10    3.40    0.70
   1  11 -10    3.10    1.90
  -1 -11 -10    2.80    2.00
  -1 -11 -10    5.80    2.30
   1  11 -10    4.20    1.90
   1 -11  10    3.80    1.70
   1  11 -10    5.00    2.20
  -1 -11  10    4.00    1.80
  -1  11 -10    1.60    1.80
   1 -11 -10    2.40    1.60
   1  11  10    4.10    1.00
  -1  11 -10    2.50    1.90
  -1  11 -10    1.10    1.90
  -1 -11  10    2.90    1.90
   2  11 -10   15.20    2.90
   2  11 -10   15.80    3.20
   2 -11  10   10.20    2.50
  -2 -11 -10   14.90    3.20
  -2  11 -10   11.70    2.80
  -2 -11  10   12.00    2.70
   2 -11 -10   10.40    2.50
  -2  11 -10   10.90    2.70
  -2 -11  10   14.60    2.70
   2  11  10   18.50    3.20
   2  11  10   14.40    1.90
   2 -11 -10   13.60    2.60
  -2  11 -10   11.10    2.50
   3  11 -10   30.30    4.10
  -3 -11 -10   15.50    3.30
   3 -11  10   23.20    3.50
  -3  11  10   23.30    3.30
   3  11 -10   22.20    3.80
  -3  11 -10   20.60    3.60
  -3  11 -10   19.30    3.60
   3  11  10   26.80    3.40
  -3 -11  10   29.40    4.10
  -3  11 -10   22.80    3.70
  -3 -11  10   27.70    3.60
   3  11  10   23.00    2.70
   3 -11 -10   31.80    3.90
   4  11 -10   17.70    3.70
  -4 -11 -10   12.10    3.10
  -4  11  10   11.70    2.40
   4 -11  10   16.50    3.00
   4  11 -10   12.00    3.10
   4  11 -10   14.60    2.90
  -4 -11  10   16.20    3.10
  -4  11 -10   13.10    2.90
   4  11  10   17.60    2.60
  -4  11 -10   15.10    3.40
  -4  11 -10   12.70    2.90
   4 -11 -10   14.70    3.00
   4  11  10   16.80    2.90
  -4 -11  10   13.90    3.00
   5 -11  10   33.80    4.40
  -5 -11 -10   25.90    4.30
   5  11 -10   30.20    5.00
  -5  11  10   27.50    3.80
   5  11 -10   26.80    3.90
   5 -11 -10   51.39    5.40
  -5  11 -10   33.10    4.50
  -5  11 -10   25.80    4.50
   5  11  10   41.00    4.50
  -5 -11  10   33.60    4.80
   5  11  10   34.30    4.00
  -5  11 -10   29.60    4.40
   6  11 -10    2.30    1.90
   6 -11  10    7.00    2.70
  -6 -11 -10    2.40    2.00
   6  11 -10    8.40    3.60
  -6  11  10    2.30    1.80
  -6  11 -10    3.30    2.40
  -6  11 -10    3.20    2.90
  -6  11 -10    7.50    3.10
  -6 -11  10    2.60    2.70
   6  11  10    7.10    2.30
   6 -11 -10    3.60    2.50
   6  11  10    3.40    2.80
   0  12 -10   72.19    6.70
   0 -12 -10   65.99    6.60
   0  12  10   69.09    3.70
   0  12 -10   79.29    6.00
   0 -12  10   73.79    5.70
   0  12 -10   71.89    6.10
  -1 -12 -10    5.40    2.50
   1 -12  10    8.80    2.30
   1  12 -10    5.70    2.10
   1  12 -10    3.90    2.00
   1  12 -10    4.10    2.30
  -1  12 -10    9.10    2.50
  -1  12 -10    8.70    2.50
  -1 -12  10    7.20    2.30
   1  12  10    7.40    1.30
  -1  12 -10    8.60    2.60
  -2 -12 -10   36.80    5.00
   2  12 -10   46.30    5.20
  -2  12  10   40.00    4.40
   2  12 -10   45.30    5.40
   2 -12  10   39.60    4.60
  -2 -12  10   33.30    4.40
   2  12  10   42.40    3.20
  -2  12 -10   41.20    5.00
  -2  12 -10   51.19    5.50
  -2 -12  10   41.30    4.80
  -2  12 -10   35.80    4.90
  -3  12  10   11.80    2.70
  -3 -12 -10   15.10    3.40
   3  12 -10    9.10    2.80
   3  12 -10   15.70    3.50
   3 -12  10   12.40    2.70
  -3  12 -10    7.90    2.50
   3  12  10    5.50    2.50
  -3  12 -10    4.90    2.50
  -3 -12  10    9.90    2.70
   3  12  10   11.30    1.90
  -3  12 -10   12.50    2.80
  -3 -12  10   15.90    3.40
   3 -12 -10    9.10    2.50
   4  12 -10    0.90    1.70
  -4 -12 -10    0.40    2.20
  -4  12  10    1.40    1.80
   4 -12  10    2.90    2.10
   4  12 -10    4.50    2.80
  -4  12 -10    3.30    2.30
  -4  12 -10    1.80    2.30
   4  12  10    3.40    1.90
  -4  12 -10    3.60    2.70
  -4 -12  10   -0.10    1.70
   4  12  10    2.60    1.50
   4 -12 -10    1.20    2.00
  -5 -12 -10    7.20    3.40
   5  12 -10    7.60    3.70
   5  12 -10    6.30    2.70
  -5  12  10    6.70    2.10
   5 -12  10    8.60    2.80
  -5  12 -10   10.80    3.40
  -5  12 -10    4.50    2.60
  -5  12 -10    9.50    3.60
   5 -12 -10   10.30    3.10
   5  12  10    6.70    2.20
   5  12  10    2.60    2.10
  -5 -12  10    4.00    2.70
   0  13 -10   -1.20    1.50
   0  13 -10   -0.60    1.70
   0 -13  10   -0.20    1.40
   0  13 -10    1.10    2.40
   1  13 -10    4.10    2.30
   1 -13  10    4.20    1.90
  -1 -13 -10    0.30    2.40
   1  13 -10    5.60    2.60
   1  13 -10    4.20    2.40
   1  13  10    1.00    1.10
  -1 -13  10    2.90    1.80
  -1  13 -10    3.20    2.60
  -1  13 -10    3.50    2.10
  -1  13 -10    2.90    1.80
  -2 -13 -10    4.50    2.70
   2  13 -10    7.90    2.80
   2  13 -10    6.50    3.00
   2 -13  10    7.90    2.70
  -2 -13  10   10.30    2.50
  -2  13 -10    5.20    2.40
  -2  13 -10    3.90    2.30
  -2  13 -10    6.90    3.10
   2  13  10   10.00    1.80
   3  13 -10   11.20    4.00
   3  13 -10   22.50    4.50
  -3 -13 -10   13.80    3.70
   3 -13  10   10.20    3.20
  -3 -13  10   16.10    3.60
   3 -13 -10   13.50    4.00
   3  13  10   10.20    2.00
  -3  13 -10   13.20    3.00
  -3  13 -10   16.30    3.80
  -3 -13  10   15.90    3.00
  -3  13 -10   13.80    3.00
   4 -13  10   12.90    3.50
   4  13 -10   13.40    4.30
   4  13 -10   13.50    3.50
  -4 -13 -10   14.50    4.20
  -4  13 -10   16.90    3.50
  -4  13 -10   10.40    3.50
   4 -13 -10   12.10    3.50
   4  13  10   13.20    2.60
   4  13  10   15.70    3.30
  -4  13 -10   13.80    4.10
  -4 -13  10   10.70    3.40
   0  14 -10   33.10    5.00
   0  14 -10   26.80    5.00
   0 -14  10   26.70    4.30
   0  14 -10   30.60    4.90
   0   0 -11    0.90    0.60
   0   0  11    0.90    0.70
   0   0  11    1.40    0.90
   0   0  11    1.30    0.40
   0   0 -11    2.30    0.80
   1   0  11    0.00    0.60
   1   0  11    1.10    0.90
  -1   0 -11    0.20    0.50
   1   0 -11   -0.30    0.40
  -1   0 -11   -0.20    0.70
   1   0 -11    0.40    0.70
  -1   0  11   -0.80    0.70
  -1   0  11    0.40    0.70
   1   0  11   -0.80    0.40
  -2   0 -11  226.98   12.80
   2   0 -11  217.78   10.50
  -2   0 -11  214.18   10.10
  -2   0  11  224.08   10.70
   2   0  11  228.68   10.60
  -2   0  11  218.28   10.60
  -2   0 -11  226.28   10.40
   2   0 -11  221.38   10.30
   2   0  11  208.58   10.70
   2   0  11  214.68   10.10
  -3   0  11   -0.20    0.60
   3   0  11    1.10    0.70
   3   0  11   -0.40    0.50
   3   0 -11    0.50    0.70
   3   0  11   -1.60    0.80
   3   0 -11   -0.10    0.50
  -3   0 -11    0.60    0.70
  -3   0 -11   -0.90    0.40
   4   0  11   44.20    3.20
   4   0  11   47.00    3.40
  -4   0  11   46.70    3.50
  -4   0  11   46.00    3.10
   4   0 -11   49.70    3.70
   4   0  11   51.49    4.00
  -4   0 -11   53.19    3.60
   5   0  11   -1.20    1.30
   5   0  11   -0.20    0.80
  -5   0  11    0.40    0.80
  -5   0  11    1.20    1.00
   5   0 -11   -1.30    0.70
   5   0  11   -1.10    0.80
  -5   0 -11   -0.80    0.70
   6   0 -11    4.80    1.50
   6   0  11    3.30    1.40
  -6   0  11    2.60    1.20
  -6   0 -11    1.60    1.30
  -6   0  11    4.50    1.50
  -7   0 -11    0.90    1.10
  -7   0  11    0.20    1.00
   7   0  11    0.40    1.10
  -7   0  11    1.80    1.20
   7   0 -11    0.30    1.10
   8   0  11   88.69    6.00
  -8   0  11   71.59    5.20
  -8   0 -11   75.09    5.50
   8   0 -11   68.59    5.20
   9   0  11    0.00    1.40
  -9   0  11   -2.10    1.40
  -9   0 -11   -1.80    1.30
   9   0 -11   -0.90    1.20
  10   0 -11   10.00    2.70
  10   0  11   10.10    2.40
 -10   0 -11    4.40    2.30
   0   1 -11  202.78    9.30
   0  -1  11  175.18    9.00
   0   1 -11  209.98    9.80
   0   1  11  176.98    9.10
   0   1 -11  199.78    9.10
   0  -1  11  180.48    9.20
   0  -1  11  193.08    8.40
   0  -1 -11  178.38    9.00
   0   1  11  200.78    8.20
   0  -1 -11  184.98    9.20
   0   1  11  177.28    9.00
   1  -1  11  245.38   11.70
   1  -1  11  247.98   11.90
  -1  -1 -11  224.18   11.20
   1  -1  11  239.48   11.20
   1   1 -11  267.47   11.80
   1   1 -11  237.48   11.40
  -1   1  11  254.77   11.80
  -1   1  11  242.58   11.80
   1   1 -11  248.58   11.00
  -1  -1 -11  227.08   10.90
  -1   1 -11  243.78   11.10
  -1  -1  11  238.18   11.80
  -1  -1  11  250.37   10.90
   1   1  11  268.07   11.10
  -1   1 -11  253.07   11.70
  -1  -1  11  258.97   12.00
   1  -1 -11  258.27   11.30
  -1   1 -11  236.58   11.20
   1  -1 -11  232.88   11.20
   1   1  11  243.58   11.80
   1   1  11  246.08   11.80
  -2  -1 -11    9.80    1.40
   2   1 -11   11.50    1.90
   2   1 -11    8.80    1.20
   2   1 -11    6.60    1.30
   2  -1  11   10.20    1.40
   2  -1  11    7.50    1.30
  -2  -1 -11   11.50    1.20
  -2   1  11   10.00    1.60
   2  -1  11   11.40    1.90
  -2   1  11    9.70    1.60
  -2  -1  11    7.70    1.40
   2   1  11    8.90    1.60
   2  -1 -11   10.30    1.50
   2   1  11   10.30    1.30
  -2   1 -11   11.00    1.90
  -2   1 -11   11.00    1.40
  -2  -1  11    4.80    1.40
   2  -1 -11    8.10    1.40
   2   1  11    9.70    1.50
  -2   1 -11   10.20    1.40
  -2  -1  11   11.50    1.00
   3   1 -11  164.18    7.20
  -3  -1 -11  155.18    8.00
   3   1 -11  164.38    8.50
   3  -1  11  161.58    7.90
   3  -1  11  158.08    7.90
   3   1 -11  164.88    8.20
   3   1 -11  160.18    7.60
  -3  -1 -11  152.38    7.30
   3  -1  11  166.08    8.50
  -3   1  11  150.18    8.10
  -3  -1  11  156.18    8.20
  -3   1 -11  168.38    7.70
   3   1  11  161.58    7.80
   3   1  11  169.28    8.20
  -3   1 -11  165.78    8.60
   3  -1 -11  154.78    7.90
   3   1  11  144.69    8.20
  -3   1 -11  159.48    7.70
  -3   1 -11  147.79    7.90
   3  -1 -11  151.48    8.10
   4  -1  11   23.50    2.40
   4   1 -11   20.00    2.50
  -4   1  11   27.90    2.60
   4  -1  11   26.90    3.20
  -4  -1 -11   18.80    2.30
   4  -1  11   27.90    2.70
  -4   1  11   22.50    2.60
   4   1  11   22.00    2.80
   4   1  11   20.80    2.30
  -4  -1  11   16.20    2.40
   4  -1 -11   22.60    2.60
  -4  -1  11   25.00    2.00
  -4   1 -11   20.60    2.00
  -4   1 -11   21.50    1.80
  -4   1 -11   23.50    2.50
   4   1  11   24.00    2.60
  -5   1  11   34.20    3.20
   5   1 -11   32.20    3.40
   5  -1  11   40.30    3.30
   5  -1  11   40.50    3.10
  -5  -1 -11   35.50    3.10
  -5   1  11   44.40    3.20
   5   1  11   42.70    3.30
  -5   1 -11   43.10    3.20
   5   1  11   47.10    4.50
   5  -1 -11   39.40    3.30
  -5  -1  11   41.00    3.50
  -5  -1  11   45.80    3.00
   5   1  11   41.90    3.30
   6   1 -11   36.90    3.40
  -6   1  11   41.00    3.60
  -6  -1 -11   42.30    3.60
  -6   1  11   54.09    3.70
   6  -1  11   40.30    3.90
  -6   1 -11   41.00    3.40
   6   1  11   44.20    3.50
  -6  -1  11   41.50    3.60
   6  -1 -11   42.30    3.50
   6   1  11   41.90    4.00
  -6  -1  11   43.90    3.30
   6   1  11   42.70    4.70
  -7   1  11    5.20    1.70
   7  -1  11    2.70    1.60
  -7  -1 -11    3.10    1.50
   7   1 -11    2.10    1.30
   7   1  11    2.50    1.30
   7  -1 -11    4.00    1.40
  -7   1 -11    0.60    1.30
  -7  -1  11    2.20    1.40
  -7  -1  11    4.40    1.50
  -8   1  11   22.10    3.10
  -8  -1 -11   21.70    3.30
   8   1 -11   17.30    2.90
   8  -1  11   22.50    3.20
  -8  -1  11   21.70    3.30
   8   1  11   23.20    3.30
  -8  -1  11   25.40    3.50
  -8   1 -11   22.80    3.20
   8  -1 -11   24.20    3.30
  -9   1  11   59.49    5.60
  -9  -1 -11   49.70    5.40
   9  -1  11   58.39    5.80
   9   1 -11   56.79    4.90
  -9   1 -11   61.79    5.20
   9   1  11   63.79    5.30
   9  -1 -11   60.99    5.20
 -10   1  11    6.00    2.40
  10   1 -11    5.40    3.50
  10  -1  11    2.30    2.20
 -10  -1 -11    4.00    2.30
  10  -1 -11    3.70    2.10
  10   1  11    3.80    1.80
 -10   1 -11    4.20    2.20
   0  -2  11   -0.20    0.60
   0   2  11    0.10    0.60
   0   2 -11    0.30    0.50
   0  -2  11    0.40    0.40
   0   2 -11    0.00    0.90
   0  -2  11   -0.40    0.80
   0   2  11   -0.20    0.30
   0   2  11    0.10    0.70
   0  -2 -11   -0.10    0.50
   0   2 -11    0.40    0.70
   0  -2 -11   -0.20    0.50
   1  -2  11   49.70    3.20
  -1  -2 -11   49.50    3.20
   1   2 -11   48.90    3.30
  -1  -2 -11   48.30    2.80
  -1   2  11   47.40    3.20
   1   2 -11   49.50    3.60
   1  -2  11   42.40    2.80
   1   2 -11   44.80    2.70
  -1   2  11   42.10    3.20
   1  -2  11   50.39    3.60
   1   2  11   46.60    3.30
  -1  -2  11   41.30    3.20
   1   2  11   48.40    2.70
  -1   2 -11   46.40    3.10
  -1  -2  11   44.10    2.60
   1  -2 -11   53.39    3.20
  -1   2 -11   51.49    3.60
   1  -2 -11   43.30    3.10
  -1   2 -11   48.30    3.00
   1   2  11   51.39    3.30
  -1  -2  11   50.89    3.50
   2  -2  11   13.50    1.60
   2   2 -11   11.20    1.80
   2   2 -11   14.80    2.10
   2  -2  11   17.60    2.30
  -2  -2 -11   15.40    1.30
  -2   2  11   14.30    2.00
   2  -2  11   16.90    1.90
  -2   2  11   13.40    1.90
   2   2 -11   17.50    1.40
  -2  -2 -11   11.40    1.70
   2   2  11   13.50    1.90
  -2   2 -11   13.10    1.60
   2   2  11   13.50    1.90
  -2   2 -11   13.20    1.60
   2  -2 -11   13.40    1.70
  -2  -2  11   11.50    1.80
   2   2  11   13.80    1.50
  -2  -2  11   14.00    1.40
   2  -2 -11   16.40    1.90
  -2   2 -11   14.80    2.20
  -2   2 -11   15.50    1.80
   3  -2  11   25.90    3.00
  -3   2  11   25.70    2.70
   3   2 -11   28.80    3.00
   3   2 -11   27.40    2.80
   3  -2  11   27.60    2.30
   3   2 -11   25.10    1.80
  -3  -2 -11   21.20    2.30
   3  -2  11   21.20    2.00
   3   2  11   27.00    2.50
  -3   2 -11   24.50    2.50
  -3  -2  11   18.00    2.30
   3  -2 -11   20.50    2.20
  -3  -2  11   27.50    1.90
   3   2  11   28.00    2.20
   3  -2 -11   17.80    2.20
  -3   2 -11   28.10    3.10
   3   2  11   19.60    2.50
  -3   2 -11   28.70    2.10
  -3   2 -11   26.70    2.20
   4  -2  11   31.80    3.00
  -4   2  11   30.60    2.90
  -4  -2 -11   29.30    3.10
   4  -2  11   30.80    2.50
   4   2 -11   26.00    2.90
   4   2 -11   30.90    2.10
  -4   2  11   31.00    2.70
  -4  -2 -11   27.70    2.90
  -4   2 -11   33.50    3.60
  -4   2 -11   26.00    2.30
  -4   2 -11   30.30    2.30
   4   2  11   26.30    2.70
  -4  -2  11   26.00    2.90
   4   2  11   27.70    3.20
  -4  -2  11   30.30    2.20
   4  -2 -11   25.30    2.80
  -4   2 -11   28.40    2.80
   5  -2  11   67.99    4.50
  -5  -2 -11   63.29    4.40
   5   2 -11   64.69    4.50
  -5   2  11   61.89    4.40
  -5   2  11   64.89    4.30
  -5  -2 -11   65.69    4.50
   5   2  11   60.79    4.30
  -5   2 -11   58.29    4.20
  -5  -2  11   76.89    4.80
  -5  -2  11   67.69    3.90
   5   2  11   57.09    4.70
   5  -2 -11   57.39    4.30
  -5   2 -11   65.89    4.00
  -5   2 -11   67.89    4.10
  -6   2  11    0.80    1.20
  -6  -2 -11    1.20    1.20
   6   2 -11    1.40    0.90
  -6  -2 -11    1.90    1.20
   6  -2  11    3.40    1.40
  -6   2  11    1.40    1.10
   6  -2 -11    1.10    1.10
  -6  -2  11    2.60    1.30
   6   2  11    1.00    1.20
  -6   2 -11    3.20    1.20
   6   2  11   -2.30    1.40
  -7  -2 -11   53.79    4.30
  -7  -2 -11   51.09    5.40
   7  -2  11   36.60    4.00
   7   2 -11   43.00    4.00
  -7   2  11   46.80    3.90
   7  -2 -11   49.90    4.30
   7   2  11   51.99    5.60
  -7   2 -11   52.19    4.20
  -7  -2  11   49.30    4.10
   7   2  11   41.90    4.20
   8   2 -11   26.80    3.50
  -8  -2 -11   14.10    2.80
   8  -2  11   17.80    3.00
  -8   2  11   28.20    3.40
  -8  -2  11   26.10    3.50
  -8   2 -11   21.20    3.20
   8   2  11   19.40    2.90
   8  -2 -11   19.10    3.10
  -9   2  11    1.90    1.80
  -9  -2 -11    2.20    1.80
   9  -2  11    2.50    2.10
   9   2 -11   -1.00    1.50
  -9   2 -11    4.20    1.90
   9  -2 -11    4.40    2.00
   9   2  11    0.50    1.80
 -10   2  11   -1.90    1.60
  10  -2  11    3.90    2.40
 -10  -2 -11    0.20    2.00
 -10   2 -11    0.90    1.30
  10  -2 -11    1.10    1.70
  10   2  11    0.00    1.30
   0   3  11  225.38   11.20
   0  -3  11  256.67   11.80
   0  -3 -11  256.17   11.60
   0  -3 -11  257.87   12.00
   0   3 -11  259.07   12.10
   0  -3  11  246.98   11.10
   0   3  11  211.08   11.50
   0   3 -11  252.17   11.40
   0   3  11  275.77   10.60
   0  -3  11  224.58   11.40
   0   3 -11  246.78   12.40
   1  -3  11  309.27   14.50
   1   3 -11  310.17   13.70
   1  -3  11  314.07   14.30
  -1   3  11  291.57   14.70
  -1  -3 -11  332.07   13.90
   1   3 -11  275.27   14.40
  -1   3  11  317.37   14.40
  -1  -3 -11  315.47   14.50
   1   3 -11  335.37   14.90
   1  -3  11  313.27   14.80
  -1   3 -11  305.27   14.30
   1   3  11  339.77   13.90
  -1   3 -11  324.07   14.00
   1   3  11  309.07   14.80
   1  -3 -11  306.57   14.40
  -1  -3  11  311.57   14.70
  -1  -3  11  311.27   14.10
  -1  -3  11  339.27   14.90
  -1   3 -11  304.07   14.40
   1   3  11  316.07   14.50
  -1   3 -11  314.77   14.80
   1  -3 -11  317.87   14.30
   2   3 -11  177.68    9.40
   2  -3  11  161.38    8.10
   2   3 -11  193.08    8.20
  -2   3  11  151.58    8.30
   2  -3  11  157.38    8.10
  -2  -3 -11  197.98    8.20
  -2   3  11  158.18    8.20
   2  -3  11  178.58    8.80
  -2  -3 -11  165.38    8.90
   2   3 -11  164.28    9.00
  -2   3 -11  194.88    8.70
   2  -3 -11  179.88    9.00
   2   3  11  161.18    8.30
  -2   3 -11  174.98    8.90
   2   3  11  179.38    7.90
  -2  -3  11  159.08    8.50
  -2   3 -11  168.98    8.80
   2   3  11  175.58    8.70
  -2  -3  11  170.28    7.80
  -2   3 -11  192.28    9.50
   2  -3 -11  173.88    8.90
   3  -3  11  246.38   10.50
  -3   3  11  216.58   10.80
   3   3 -11  225.58   11.00
  -3  -3 -11  232.68   11.00
  -3  -3 -11  205.18   11.00
   3   3 -11  222.98   11.30
   3  -3  11  212.88   10.60
  -3   3 -11  224.58   10.60
  -3  -3  11  204.28   11.00
  -3  -3  11  237.98   10.20
  -3  -3  11  230.88   10.30
   3  -3 -11  226.18   10.90
   3   3  11  212.08   10.40
  -3   3 -11  223.58   10.70
   3  -3 -11  221.08   10.80
   3   3  11  205.18   10.90
  -3   3 -11  241.18   11.50
  -3   3 -11  209.88   10.50
  -4  -3 -11   15.80    2.40
  -4  -3 -11   16.00    2.10
   4  -3  11   16.00    2.10
   4   3 -11   19.60    2.90
   4   3 -11   13.70    2.20
  -4   3  11   13.70    2.10
  -4   3  11   16.90    2.20
   4   3 -11   17.30    1.90
   4   3  11   17.20    2.10
  -4   3 -11   16.40    2.10
  -4  -3  11   16.80    2.50
  -4   3 -11   24.60    3.20
   4   3  11   18.60    2.70
  -4   3 -11   20.50    2.20
   4  -3 -11   18.40    2.30
   4  -3 -11   20.60    2.50
  -4   3 -11   18.00    2.20
   5   3 -11   71.99    4.00
  -5   3  11   56.39    4.10
  -5  -3 -11   59.49    4.30
  -5  -3 -11   60.19    4.50
   5  -3  11   66.49    4.40
   5   3 -11   59.39    4.30
  -5   3  11   64.99    4.30
   5   3  11   58.59    4.80
  -5   3 -11   59.79    4.00
  -5  -3  11   60.89    4.50
   5  -3 -11   61.39    4.40
  -5   3 -11   67.89    5.20
  -5   3 -11   63.19    4.10
   5   3  11   63.09    4.30
  -5   3 -11   58.59    4.30
   6  -3  11   17.30    2.60
  -6  -3 -11   13.20    2.30
   6   3 -11   15.60    2.40
  -6  -3 -11   18.30    2.80
  -6   3  11   18.10    2.60
   6   3  11   17.20    3.10
  -6  -3  11   15.10    2.50
   6   3  11   15.60    2.40
  -6   3 -11   16.90    2.50
   6  -3 -11   16.80    2.70
  -7  -3 -11  110.19    7.00
   7   3 -11  109.59    7.00
  -7  -3 -11  118.19    7.20
  -7   3  11  114.79    7.00
   7  -3  11  115.29    7.20
   7   3  11  118.79    7.10
  -7  -3  11  104.49    7.20
  -7   3 -11  108.09    6.90
   7   3  11  124.19    8.10
   7  -3 -11  118.99    7.30
   8   3 -11    5.00    1.80
   8  -3  11    6.30    2.10
  -8   3  11    5.10    1.80
  -8  -3 -11    3.80    1.90
   8  -3 -11    4.90    2.00
  -8   3 -11    6.80    2.10
  -8  -3  11    3.80    1.80
   8   3  11    2.90    1.80
  -9  -3 -11   30.80    4.10
  -9   3  11   33.90    4.40
   9  -3  11   35.00    4.60
   9   3 -11   39.90    5.00
   9  -3 -11   43.10    4.80
   9   3  11   34.80    4.50
  -9  -3  11   43.10    5.00
  -9   3 -11   30.20    4.00
 -10  -3 -11    0.40    2.30
 -10   3  11   -0.40    2.00
  10  -3  11    1.90    2.20
 -10   3 -11    2.80    1.70
  10   3  11    0.40    1.40
  10  -3 -11   -0.70    1.50
   0   4 -11    0.20    0.50
   0   4  11    0.40    0.80
   0   4 -11   -0.40    0.90
   0  -4 -11   -0.10    0.60
   0   4  11    0.10    0.60
   0   4  11   -0.50    0.50
   0  -4  11    0.40    0.70
   0   4 -11   -0.10    0.70
   0  -4 -11   -0.80    0.40
   0  -4  11   -0.20    0.50
  -1   4  11  159.48    8.20
   1  -4  11  160.38    7.90
   1  -4  11  159.18    7.80
   1   4 -11  149.59    8.20
  -1  -4 -11  164.88    7.60
  -1   4  11  162.48    7.70
  -1  -4 -11  157.68    8.20
   1   4 -11  168.28    8.70
  -1  -4  11  154.68    8.10
  -1   4 -11  160.68    8.60
  -1   4 -11  151.38    8.00
  -1   4 -11  174.98    7.60
  -1   4 -11  161.98    8.30
   1  -4 -11  155.38    8.10
   1  -4 -11  150.78    7.90
   1   4  11  166.48    7.40
   1   4  11  147.09    7.70
  -1  -4  11  157.28    7.70
   1   4  11  150.08    8.20
  -2   4  11    0.20    0.70
   2   4 -11    2.00    1.30
  -2   4  11   -0.10    0.70
   2   4 -11    0.30    0.80
   2  -4  11    1.10    0.90
   2  -4  11    1.90    0.90
  -2  -4 -11    0.60    1.20
  -2  -4 -11    1.60    0.90
   2   4  11    2.80    1.00
  -2   4 -11    0.50    1.10
   2  -4 -11    1.70    1.00
  -2   4 -11    3.50    1.20
  -2   4 -11    1.80    0.80
  -2   4 -11    0.80    0.90
   2  -4 -11    2.80    1.00
   2   4  11    1.60    0.70
  -2  -4  11    2.60    1.00
  -2  -4  11    1.30    0.70
  -3  -4 -11   34.00    3.50
   3  -4  11   34.00    2.60
  -3   4  11   33.30    2.80
  -3   4  11   38.20    3.00
  -3  -4 -11   33.90    2.90
   3   4 -11   28.00    3.00
   3   4 -11   40.20    4.00
   3  -4  11   32.20    2.80
   3   4  11   33.80    2.60
  -3  -4  11   33.80    2.60
   3  -4 -11   33.40    2.80
  -3   4 -11   29.70    2.70
   3   4  11   44.70    3.30
  -3   4 -11   32.20    2.70
  -3   4 -11   33.90    2.60
  -3   4 -11   30.70    3.50
   3  -4 -11   34.60    2.80
  -3  -4  11   33.20    3.10
   4   4 -11   71.39    5.30
   4   4 -11   79.69    4.40
  -4  -4 -11   73.39    4.70
  -4   4  11   79.69    4.90
   4   4 -11   71.29    4.80
  -4  -4 -11   77.79    5.10
   4  -4  11   75.09    4.80
   4  -4 -11   75.19    4.90
   4   4  11   78.19    5.20
  -4   4 -11   79.29    5.50
  -4   4 -11   70.19    4.50
  -4  -4  11   73.49    5.10
   4   4  11   72.19    4.60
   4  -4 -11   62.89    4.50
  -4   4 -11   70.09    4.70
  -4   4 -11   74.79    4.60
  -5  -4 -11   47.80    4.10
  -5   4  11   43.20    3.70
   5  -4  11   50.29    3.80
  -5   4  11   50.29    3.90
   5   4 -11   74.69    7.00
   5   4 -11   60.39    3.80
   5   4 -11   52.49    4.00
  -5  -4 -11   53.09    4.00
  -5   4 -11   55.19    4.00
  -5   4 -11   50.99    3.90
   5   4  11   52.59    3.70
   5  -4 -11   51.09    4.20
   5   4  11   47.00    4.60
  -5   4 -11   61.29    5.00
  -5  -4  11   52.59    4.10
  -5   4 -11   55.99    3.90
   6   4 -11   22.10    2.80
  -6  -4 -11   18.10    2.70
  -6   4  11   19.00    2.70
  -6  -4 -11   15.00    2.60
   6  -4  11   21.80    3.00
   6   4 -11   24.10    3.00
   6  -4 -11   17.50    2.80
  -6  -4  11   20.60    3.10
  -6   4 -11   30.30    4.30
  -6   4 -11   14.80    2.30
  -6   4 -11   25.00    2.80
   6   4  11   25.70    3.10
  -6   4 -11   19.80    2.70
   6   4  11   22.90    3.40
  -7   4  11   13.60    2.40
   7   4 -11   13.10    2.40
  -7  -4 -11   10.10    2.30
  -7  -4 -11   12.80    2.60
   7  -4  11   10.20    2.30
   7  -4 -11   13.00    2.40
   7   4  11   13.70    3.20
   7   4  11    8.80    2.10
  -7  -4  11   13.70    2.60
  -7   4 -11    8.90    2.10
  -8  -4 -11    3.40    2.00
  -8   4  11   -0.50    1.50
   8   4 -11    3.40    1.70
   8  -4  11    5.30    2.00
  -8  -4 -11    6.90    2.30
  -8  -4  11    2.80    1.70
  -8   4 -11    3.70    1.90
   8   4  11    6.70    2.90
   8  -4 -11    3.80    1.90
   8   4  11    2.90    1.70
   9  -4  11   65.39    6.30
  -9   4  11   61.49    5.90
  -9  -4 -11   55.59    5.60
   9  -4 -11   62.69    5.50
  -9   4 -11   65.09    5.50
   9   4  11   55.89    5.70
  -9  -4  11   66.99    5.80
  10  -4  11    1.60    2.40
 -10   4  11    2.20    2.40
 -10  -4 -11   -1.10    2.20
 -10   4 -11    5.50    2.30
  10  -4 -11    0.60    1.50
  10   4  11    2.80    1.90
   0   5 -11   33.00    3.40
   0   5 -11   24.70    2.70
   0  -5  11   33.30    2.60
   0  -5  11   35.70    2.80
   0  -5 -11   29.60    2.50
   0   5  11   32.90    2.90
   0  -5 -11   25.90    2.20
   0   5 -11   26.00    2.70
   0   5  11   34.20    2.20
   0   5  11   35.00    2.40
   1  -5  11  137.49    7.20
  -1   5  11  139.49    7.50
  -1   5  11  137.89    6.80
  -1  -5 -11  143.39    7.70
   1  -5  11  147.39    7.20
   1   5 -11  139.89    7.90
  -1  -5 -11  146.29    7.10
   1   5 -11  155.48    8.30
   1   5  11  133.49    6.70
  -1   5 -11  146.09    7.80
  -1  -5  11  138.19    7.40
   1   5  11  125.79    6.90
  -1   5 -11  135.39    8.00
   1  -5 -11  146.49    7.70
  -1   5 -11  156.98    8.00
  -1  -5  11  141.29    7.10
   1   5  11  151.28    7.80
   1  -5 -11  159.28    7.60
  -2  -5 -11  166.68    8.60
  -2   5  11  164.98    7.90
  -2   5  11  161.48    8.50
   2  -5  11  179.08    8.10
   2  -5  11  162.68    8.30
   2   5 -11  153.48    8.60
   2   5 -11  164.48    9.00
  -2  -5 -11  175.18    9.00
  -2  -5  11  149.09    8.40
  -2  -5  11  156.98    8.00
  -2   5 -11  161.88    8.50
   2   5  11  162.18    7.90
   2  -5 -11  152.78    8.30
  -2   5 -11  171.28    8.00
  -2   5 -11  165.88    9.00
   2   5  11  146.49    8.00
  -2   5 -11  158.08    8.60
   2  -5 -11  172.98    8.60
  -3  -5 -11   78.19    4.90
   3  -5  11   75.09    4.60
  -3  -5 -11   71.49    5.20
  -3   5  11   66.59    4.20
   3   5 -11   85.59    5.60
  -3   5  11   71.39    4.60
   3   5 -11   79.09    5.10
   3  -5 -11   75.39    4.90
  -3   5 -11   78.19    4.50
  -3   5 -11   69.49    4.60
  -3   5 -11   79.99    5.00
   3   5  11   68.69    4.20
  -3  -5  11   63.79    4.70
  -3   5 -11   75.89    5.40
  -3  -5  11   72.99    4.30
   3   5  11   72.89    4.60
   3  -5 -11   75.89    4.80
  -4   5  11   18.30    2.40
   4   5 -11   26.80    3.40
   4   5 -11   20.90    2.80
  -4  -5 -11   23.40    3.10
   4   5 -11   20.40    2.40
   4  -5  11   24.90    2.70
  -4   5  11   26.50    2.90
  -4  -5 -11   21.90    2.70
   4   5  11   22.50    2.90
  -4   5 -11   20.50    2.70
  -4   5 -11   19.90    3.10
   4  -5 -11   18.90    2.40
  -4   5 -11   25.20    2.70
   4   5  11   22.70    2.60
  -4   5 -11   23.10    2.80
  -4  -5  11   19.40    2.80
   4  -5 -11   18.70    2.70
  -5  -5 -11    2.50    1.40
   5   5 -11    4.50    1.40
   5  -5  11    5.40    1.40
   5   5 -11    6.90    1.40
   5   5 -11    6.60    2.40
  -5   5  11    5.80    1.60
  -5  -5 -11    5.10    1.70
  -5   5 -11    3.40    1.40
  -5  -5  11    2.00    1.30
   5   5  11    4.00    1.70
  -5   5 -11    5.00    2.10
  -5   5 -11    4.30    1.40
  -5   5 -11    7.40    1.70
   5   5  11    5.20    1.50
   5  -5 -11    4.70    1.50
   6   5 -11   54.19    4.00
  -6  -5 -11   46.70    4.10
  -6  -5 -11   43.20    4.20
   6  -5  11   56.69    4.30
  -6   5  11   55.69    4.30
   6   5 -11   50.39    4.20
  -6   5 -11   59.49    4.20
  -6   5 -11   53.49    4.20
  -6   5 -11   55.59    5.70
   6   5  11   51.99    4.10
  -6   5 -11   53.39    4.20
  -6  -5  11   42.70    4.70
   6  -5 -11   48.10    4.20
   6   5  11   47.00    5.10
  -7  -5 -11    6.70    2.10
   7  -5  11    4.60    1.70
   7   5 -11   10.20    2.30
  -7  -5 -11    8.80    2.20
  -7   5  11    9.20    2.20
  -7  -5  11    8.60    2.40
   7  -5 -11    7.20    2.00
   7   5  11    8.70    2.80
   7   5  11    7.90    1.90
  -7   5 -11    9.80    2.20
   8   5 -11   22.30    5.10
   8  -5  11   22.80    3.50
  -8  -5 -11   23.80    3.70
  -8  -5 -11   22.20    3.40
  -8   5  11   18.90    3.30
   8   5  11   27.80    4.60
   8  -5 -11   22.70    3.50
  -8  -5  11   22.00    3.80
   8   5  11   19.70    3.30
  -8   5 -11   21.30    3.40
  -9  -5 -11   26.10    4.00
   9  -5  11   26.50    3.90
  -9   5  11   25.10    4.00
  -9  -5  11   26.60    4.20
   9   5  11   37.90    4.60
  -9   5 -11   32.30    4.20
   9  -5 -11   30.80    4.40
 -10   5  11    4.40    3.00
  10  -5  11    5.30    2.90
 -10  -5 -11    4.10    2.70
  10  -5 -11    4.10    2.20
 -10   5 -11    1.40    2.40
 -10  -5  11    9.60    3.10
  10   5  11    3.70    2.30
   0  -6  11   -1.00    0.60
   0   6 -11   -1.40    1.10
   0   6 -11    0.80    1.00
   0   6  11    0.50    0.90
   0  -6 -11    1.20    0.80
   0  -6  11   -0.20    0.60
   0   6 -11   -0.80    0.90
   0   6  11    0.00    0.60
   0  -6 -11    0.20    0.70
   1  -6  11   22.30    2.40
  -1   6  11   19.20    2.50
   1   6 -11   23.80    3.00
   1  -6  11   18.00    2.30
  -1  -6 -11   25.20    3.00
   1   6 -11   27.30    3.40
  -1  -6 -11   19.10    2.50
  -1   6  11   21.40    1.80
   1  -6 -11   29.70    2.50
   1   6  11   23.90    2.20
   1  -6 -11   31.20    3.10
   1   6  11   21.40    2.10
  -1   6 -11   19.20    2.60
  -1  -6  11   23.50    2.80
  -1   6 -11   23.20    2.70
  -1   6 -11   28.90    3.40
  -1  -6  11   21.30    2.40
   2   6 -11   -0.30    0.80
   2  -6  11   -0.30    0.80
   2   6 -11   -0.20    1.40
   2  -6  11    0.60    0.80
  -2   6  11    0.30    0.70
  -2   6  11    0.40    0.90
  -2  -6 -11    0.00    1.10
  -2  -6 -11   -1.00    0.90
  -2  -6  11    0.30    1.00
   2   6  11    1.80    0.90
  -2   6 -11    1.50    1.20
  -2  -6  11    2.40    1.00
  -2   6 -11    1.60    1.10
   2   6  11    0.60    0.70
  -2   6 -11   -0.60    1.20
   2  -6 -11   -0.90    0.70
   2  -6 -11   -0.90    0.80
   3   6 -11  147.59    8.20
   3   6 -11  157.58    8.70
   3  -6  11  152.28    8.00
  -3  -6 -11  151.88    8.10
  -3  -6 -11  126.19    8.10
  -3   6  11  143.29    7.90
  -3   6  11  142.09    7.30
  -3   6 -11  148.09    8.00
   3   6  11  143.09    7.60
   3  -6 -11  145.39    8.00
  -3   6 -11  151.08    8.60
  -3  -6  11  153.68    8.30
  -3  -6  11  134.29    7.50
  -3   6 -11  130.89    7.90
   3  -6 -11  158.98    8.20
  -3   6 -11  150.68    7.60
   3   6  11  143.99    7.50
   4   6 -11   12.20    1.90
   4   6 -11   12.30    2.20
   4   6 -11   14.20    2.80
  -4  -6 -11   13.50    2.20
   4  -6  11   13.30    2.10
  -4   6  11   12.20    2.00
  -4  -6 -11   11.30    2.30
   4  -6 -11   12.80    2.20
   4   6  11   12.40    1.90
  -4   6 -11   14.10    2.20
  -4   6 -11   12.00    2.60
  -4  -6  11   10.20    2.30
  -4   6 -11   14.50    2.10
  -4   6 -11   11.80    2.10
   4  -6 -11   11.80    2.00
   4   6  11   13.30    2.20
  -5   6  11   43.40    3.70
   5   6 -11   43.40    4.90
   5   6 -11   45.80    3.90
  -5  -6 -11   47.00    3.90
  -5  -6 -11   36.50    4.10
   5  -6  11   36.40    3.80
   5   6 -11   41.40    3.50
   5   6  11   40.10    3.40
  -5  -6  11   43.60    4.60
  -5   6 -11   39.90    4.70
  -5   6 -11   48.20    3.60
   5  -6 -11   42.10    4.40
  -5   6 -11   45.50    4.00
  -5   6 -11   43.80    4.30
   5   6  11   36.90    4.20
  -6  -6 -11    5.90    1.80
   6   6 -11    3.50    1.40
  -6   6  11    6.10    1.80
   6   6 -11    5.00    1.70
  -6  -6 -11    3.70    1.70
   6  -6  11    6.30    1.80
  -6   6 -11    7.00    2.00
   6   6  11    5.70    1.70
  -6  -6  11    4.40    1.80
  -6   6 -11    5.90    2.70
   6   6  11    5.10    2.20
  -6   6 -11    8.10    2.10
   6  -6 -11    5.30    1.80
  -6   6 -11    4.80    1.60
  -7  -6 -11   32.10    4.30
   7   6 -11   45.40    4.60
   7  -6  11   32.20    4.10
  -7   6  11   37.50    4.10
   7   6 -11   37.60    4.50
   7  -6 -11   42.80    4.80
  -7  -6  11   31.90    4.10
  -7   6 -11   34.30    4.00
  -7   6 -11   47.00    5.80
   7   6  11   37.40    4.00
  -7   6 -11   34.80    4.10
  -7   6 -11   40.60    4.40
   7   6  11   37.70    4.70
  -8  -6 -11    5.50    2.20
   8  -6  11    8.30    2.30
  -8  -6 -11    6.50    2.20
  -8   6  11    7.60    2.30
  -8   6 -11    9.60    2.30
   8  -6 -11    5.10    2.10
   8   6  11    6.80    3.10
  -8  -6  11    9.60    2.70
   8   6  11    5.90    2.00
   9  -6  11   13.00    3.10
  -9  -6 -11   12.30    3.50
  -9  -6 -11    8.80    2.60
  -9   6  11   11.30    3.20
   9   6  11   11.20    4.80
  -9   6 -11    9.50    2.80
   9   6  11   10.70    2.70
   9  -6 -11   12.20    3.00
  -9  -6  11   13.00    3.30
   0   7  11   25.80    3.10
   0  -7  11   29.10    3.00
   0  -7 -11   27.00    2.90
   0   7 -11   27.00    3.20
   0  -7  11   28.20    3.10
   0   7 -11   23.90    3.20
   0   7  11   28.20    2.00
   0   7 -11   25.00    3.10
   0  -7 -11   28.00    2.70
   1   7 -11   19.50    2.70
   1   7 -11   23.80    3.30
  -1   7  11   21.40    2.80
  -1   7  11   26.30    2.00
  -1  -7 -11   27.50    3.00
   1  -7  11   25.10    2.80
  -1  -7 -11   20.90    3.10
   1  -7  11   27.80    2.80
   1   7  11   23.30    2.00
   1  -7 -11   30.50    3.00
  -1   7 -11   25.80    3.10
   1  -7 -11   31.60    3.20
  -1  -7  11   27.40    3.10
  -1   7 -11   29.70    3.50
   1   7  11   23.70    2.30
  -1   7 -11   28.40    3.50
  -1  -7  11   23.50    2.70
  -2  -7 -11   29.70    3.10
   2   7 -11   32.40    3.70
  -2  -7 -11   29.50    3.60
  -2   7  11   28.60    3.20
   2  -7  11   25.90    3.00
  -2   7  11   27.30    2.10
   2   7 -11   26.30    3.30
  -2   7 -11   26.00    3.40
  -2   7 -11   25.60    3.10
   2   7  11   26.20    2.50
  -2   7 -11   23.20    3.00
  -2  -7  11   30.80    3.40
  -2  -7  11   31.50    3.20
   2  -7 -11   21.60    2.90
   2  -7 -11   29.80    3.10
   2   7  11   30.60    2.50
  -3  -7 -11   14.10    2.70
   3   7 -11   15.80    2.50
   3  -7  11   16.00    2.30
  -3  -7 -11   16.80    2.60
   3   7 -11   16.40    2.90
  -3   7  11   16.30    2.50
   3  -7 -11   15.50    2.30
   3   7  11   13.80    2.10
  -3   7 -11   11.30    2.60
  -3   7 -11   18.80    2.70
   3  -7 -11   21.20    2.80
  -3  -7  11   15.90    2.20
  -3   7 -11   16.20    2.60
   3   7  11   17.60    2.30
  -3  -7  11   16.40    2.60
   4   7 -11   52.69    5.30
  -4  -7 -11   44.10    4.70
  -4   7  11   37.00    3.80
   4   7 -11   46.00    4.00
  -4  -7 -11   46.50    3.90
   4  -7  11   47.30    4.50
   4   7  11   45.10    3.50
  -4   7 -11   43.20    4.70
  -4   7 -11   38.00    4.00
   4   7  11   46.90    3.80
  -4  -7  11   45.20    4.10
  -4   7 -11   45.30    3.90
   4  -7 -11   44.60    4.00
  -4  -7  11   45.90    3.60
  -5   7  11    0.70    1.20
   5   7 -11   -1.30    1.00
   5  -7  11    0.10    1.10
   5   7 -11    0.20    1.10
  -5  -7 -11    0.70    1.30
   5   7 -11   -0.70    1.90
  -5  -7 -11    0.80    1.30
  -5   7 -11    1.90    1.90
   5   7  11   -0.90    1.30
  -5  -7  11    2.40    1.60
  -5   7 -11    1.20    1.30
  -5   7 -11    0.90    1.40
   5   7  11    0.00    1.00
   5  -7 -11    0.50    1.20
  -5   7 -11    2.10    1.60
   6  -7  11    2.80    1.60
  -6   7  11   12.70    2.50
   6   7 -11    7.60    3.10
  -6  -7 -11    8.20    2.20
   6   7 -11    7.10    1.90
  -6  -7 -11   10.20    2.50
   6   7 -11    9.70    2.30
   6   7  11   10.20    2.10
   6   7  11    8.60    2.40
  -6   7 -11   11.00    3.10
   6  -7 -11   10.10    2.50
  -6   7 -11   12.10    2.50
  -6   7 -11    8.20    2.00
  -6  -7  11    9.50    2.30
  -6   7 -11    5.50    1.90
  -7  -7 -11    5.10    1.90
   7   7 -11    5.30    1.80
  -7  -7 -11    4.60    2.10
   7  -7  11    3.10    1.80
  -7   7  11    4.90    1.80
  -7   7 -11    0.40    1.60
  -7   7 -11    6.20    3.10
   7   7  11    1.90    1.50
  -7  -7  11    6.20    2.20
   7   7  11    2.90    2.20
  -7   7 -11    2.40    1.80
   7  -7 -11    3.30    1.70
  -7   7 -11    7.50    2.20
  -8   7  11   19.20    3.40
  -8  -7 -11   18.00    3.70
   8  -7  11   19.20    3.40
  -8  -7 -11   16.30    3.30
   8  -7 -11   22.60    3.70
  -8  -7  11   22.10    3.90
   8   7  11   19.10    4.10
   8   7  11   26.00    3.70
  -8   7 -11   21.70    3.50
  -9  -7 -11   -0.80    1.80
  -9   7  11    5.10    2.80
  -9  -7 -11    3.10    2.50
   9  -7  11    1.90    2.40
   9   7  11    0.10    3.20
   9  -7 -11   -0.10    1.50
   9   7  11   -0.30    1.50
  -9  -7  11   -1.50    1.60
  -9   7 -11    3.00    2.10
   0   8 -11    1.00    1.40
   0   8  11    0.10    0.50
   0   8 -11    0.60    1.10
   0   8 -11    1.90    1.30
   0  -8 -11   -0.50    1.00
   0  -8  11   -0.90    0.80
   0  -8  11    1.50    1.20
   0   8  11    0.50    1.00
  -1  -8 -11  156.58    8.10
   1  -8  11  139.79    7.90
   1   8 -11  140.59    8.30
  -1   8  11  143.89    8.20
   1   8 -11  139.79    8.50
   1  -8  11  160.08    8.00
  -1  -8 -11  139.79    8.40
  -1   8  11  144.99    6.80
  -1   8 -11  135.49    8.20
   1  -8 -11  156.78    8.10
   1   8  11  145.29    7.00
   1  -8 -11  137.99    7.70
  -1   8 -11  142.49    8.10
  -1  -8  11  136.89    8.00
  -1  -8  11  132.29    7.80
  -1   8 -11  143.09    8.40
  -2   8  11   14.60    2.40
   2  -8  11   13.50    2.30
   2   8 -11   14.20    2.80
   2   8 -11   15.20    2.50
  -2  -8 -11   17.70    2.90
  -2   8  11   17.50    1.80
  -2  -8 -11   15.20    2.40
  -2   8 -11   19.40    3.00
   2  -8 -11   14.10    2.20
   2   8  11   14.80    1.90
  -2   8 -11   13.90    2.60
  -2  -8  11   14.00    2.40
  -2  -8  11   12.80    2.20
   2  -8 -11   13.10    2.20
  -2   8 -11   11.70    2.50
   2   8  11   16.30    2.20
   3   8 -11   27.80    3.60
   3   8 -11   20.00    3.30
   3  -8  11   29.00    3.40
  -3  -8 -11   25.70    3.10
  -3  -8 -11   26.00    3.60
   3   8  11   25.80    2.90
   3  -8 -11   23.80    3.00
   3  -8 -11   27.80    3.30
  -3  -8  11   24.80    3.30
  -3   8 -11   26.30    3.20
  -3   8 -11   29.00    3.80
  -3  -8  11   26.20    3.00
   3   8  11   29.70    3.00
  -3   8 -11   25.50    3.40
  -4  -8 -11   16.70    2.60
   4   8 -11   11.30    2.70
  -4  -8 -11   11.40    2.50
  -4   8  11   12.60    2.30
   4  -8  11   12.10    2.30
   4   8 -11   13.40    2.50
  -4   8 -11   12.90    2.80
  -4   8 -11   14.40    2.70
   4   8  11   11.50    2.10
  -4  -8  11   11.90    2.10
   4  -8 -11   17.50    2.80
  -4   8 -11   13.50    2.60
   4   8  11   15.40    2.50
  -4  -8  11   13.40    2.70
   5  -8  11   34.40    3.90
   5   8 -11   45.60    5.40
  -5  -8 -11   34.90    4.00
  -5   8  11   30.70    3.50
  -5  -8 -11   37.40    4.60
   5   8 -11   30.00    3.60
   5   8 -11   38.00    4.20
  -5   8 -11   42.40    4.70
  -5   8 -11   34.40    4.30
   5  -8 -11   33.90    4.10
  -5  -8  11   34.20    4.40
   5   8  11   31.00    3.50
   5   8  11   36.50    4.10
  -5   8 -11   30.70    4.40
   6  -8  11    8.60    2.20
   6   8 -11   13.50    3.60
  -6  -8 -11   13.80    3.10
  -6  -8 -11   12.00    2.50
   6   8 -11   16.40    2.70
  -6   8  11   13.20    2.70
   6   8 -11   11.00    2.50
  -6   8 -11   11.00    2.60
  -6  -8  11   10.60    2.50
   6   8  11   17.40    3.20
  -6   8 -11   18.00    3.70
   6   8  11   11.90    2.50
   6  -8 -11   13.50    3.00
  -6   8 -11    8.70    2.50
   7  -8  11   38.10    4.50
  -7  -8 -11   44.70    5.40
   7   8 -11   42.60    4.60
  -7   8  11   49.00    4.90
  -7  -8 -11   36.40    4.50
  -7   8 -11   49.40    6.10
   7  -8 -11   45.20    5.10
   7   8  11   40.10    4.50
  -7   8 -11   43.00    5.00
  -7  -8  11   45.60    5.40
  -7   8 -11   44.60    4.90
   7   8  11   39.30    5.00
   8  -8  11    2.40    2.20
  -8  -8 -11    7.80    2.80
  -8   8  11    3.70    2.00
  -8   8 -11    4.70    2.60
   8   8  11    4.40    2.00
  -8   8 -11    7.70    2.80
   8  -8 -11    9.40    2.60
   8   8  11    2.80    2.90
  -8   8 -11    9.10    2.90
  -8  -8  11    6.00    2.20
   0   9 -11   18.00    2.90
   0  -9 -11   25.80    3.40
   0   9 -11   18.90    3.10
   0  -9  11   24.20    2.90
   0   9 -11   18.20    2.90
   0  -9 -11   22.80    2.90
   0   9  11   20.30    1.60
   0  -9  11   20.00    2.90
   1   9 -11   61.19    5.00
   1   9 -11   68.49    5.40
  -1   9  11   67.19    4.90
  -1  -9 -11   55.19    4.50
  -1  -9 -11   59.89    5.10
   1  -9  11   65.69    4.70
  -1   9  11   56.59    3.30
  -1   9 -11   63.79    5.10
   1  -9 -11   73.69    4.90
   1   9  11   56.09    3.50
  -1  -9  11   63.09    4.50
  -1   9 -11   60.59    5.10
  -1   9 -11   62.49    4.80
  -1  -9  11   65.69    4.70
   1  -9 -11   66.49    4.60
   2   9 -11   55.89    5.40
  -2   9  11   48.00    3.00
   2   9 -11   59.29    4.70
  -2  -9 -11   45.30    4.00
  -2   9  11   51.19    4.30
  -2  -9 -11   38.00    4.60
   2  -9  11   51.29    4.10
  -2   9 -11   46.50    4.90
   2  -9 -11   48.10    4.10
  -2   9 -11   54.29    4.50
   2   9  11   46.00    3.70
  -2  -9  11   45.00    4.10
  -2  -9  11   47.50    4.00
   2  -9 -11   57.39    4.20
   2   9  11   46.30    3.30
  -2   9 -11   46.50    4.90
   3  -9  11   27.40    3.50
  -3  -9 -11   28.10    4.00
  -3  -9 -11   25.70    3.30
   3   9 -11   32.30    4.20
   3   9 -11   22.70    3.30
  -3   9 -11   25.50    3.50
  -3  -9  11   25.80    3.50
   3  -9 -11   29.40    3.60
  -3  -9  11   24.30    3.10
   3   9  11   25.30    2.90
   3  -9 -11   32.20    3.60
  -3   9 -11   28.70    4.00
   3   9  11   25.00    2.80
  -3   9 -11   28.20    3.90
   4   9 -11   28.00    4.10
  -4  -9 -11   30.70    4.20
  -4  -9 -11   31.80    3.80
   4  -9  11   27.70    3.50
   4   9 -11   29.80    3.90
  -4   9  11   28.90    3.40
  -4  -9  11   28.20    3.50
  -4   9 -11   25.00    3.60
  -4  -9  11   25.90    3.80
  -4   9 -11   25.20    3.50
   4  -9 -11   32.80    4.00
  -4   9 -11   32.90    4.40
   4   9  11   29.20    3.40
   4   9  11   25.50    3.10
   5  -9  11    9.60    2.50
  -5   9  11    8.40    2.20
  -5  -9 -11    4.40    2.00
   5   9 -11    8.60    2.30
   5   9 -11    8.90    3.00
   5   9 -11    7.30    1.90
  -5  -9 -11   11.40    2.50
  -5  -9  11    2.80    2.00
  -5   9 -11    8.40    2.50
  -5   9 -11   10.20    3.00
   5   9  11    9.70    2.10
   5   9  11    7.30    2.20
  -5   9 -11    6.80    2.30
   5  -9 -11    3.90    2.00
   6   9 -11   26.00    3.60
   6  -9  11   25.80    3.80
   6   9 -11   37.50    5.30
  -6  -9 -11   30.00    4.50
  -6   9  11   29.10    3.90
  -6  -9  11   25.30    4.30
  -6   9 -11   32.10    4.20
  -6   9 -11   28.40    4.70
  -6   9 -11   34.30    4.40
   6   9  11   29.10    4.10
   6  -9 -11   29.60    4.20
   6   9  11   32.10    3.90
  -7   9  11    9.70    2.60
  -7  -9 -11   17.30    3.50
   7  -9  11   16.00    3.30
   7   9 -11   16.80    3.20
  -7   9 -11   23.90    4.60
  -7  -9  11   12.10    2.90
   7   9  11   19.40    3.90
   7  -9 -11   16.40    3.50
  -7   9 -11   15.50    3.30
  -7   9 -11   16.00    3.50
   7   9  11   13.70    2.90
  -8   9  11   18.60    3.50
   8   9 -11   11.60    4.50
   8  -9  11   12.30    3.50
  -8  -9 -11   13.00    3.50
   8   9  11   14.60    3.00
   8   9  11   16.00    4.20
  -8   9 -11    9.20    3.10
  -8   9 -11   17.10    4.90
  -8   9 -11    8.90    3.00
  -8  -9  11    8.00    2.60
   8  -9 -11   10.90    3.30
   0 -10  11   -0.20    1.20
   0  10  11    0.70    0.60
   0  10 -11   -0.40    1.40
   0  10 -11    0.00    1.60
   0  10 -11   -2.00    1.10
   0 -10 -11    0.20    1.20
   0 -10 -11   -0.80    1.30
   1  10 -11    7.90    2.20
   1 -10  11   13.00    2.40
  -1  10  11    9.50    1.20
   1  10 -11   10.20    2.50
  -1 -10 -11    9.10    2.60
  -1 -10 -11   10.90    2.30
   1  10 -11   10.60    2.40
  -1  10  11   13.10    2.50
  -1 -10  11   10.70    2.30
  -1  10 -11    7.80    2.20
   1  10  11    9.30    1.40
   1 -10 -11    9.40    2.20
  -1 -10  11   13.60    2.60
  -1  10 -11    6.80    2.30
  -1  10 -11    5.50    1.80
  -2 -10 -11   29.40    3.60
  -2 -10 -11   23.40    3.70
   2 -10  11   24.00    3.20
  -2  10  11   21.10    1.80
   2  10 -11   27.90    3.80
   2  10 -11   18.90    3.50
  -2  10 -11   28.70    3.70
   2 -10 -11   27.60    3.50
  -2 -10  11   21.90    3.30
  -2  10 -11   22.80    3.50
   2  10  11   22.10    2.40
  -2 -10  11   21.80    3.20
  -2  10 -11   32.20    4.10
   2 -10 -11   23.30    3.20
   3  10 -11    5.70    2.20
  -3  10  11   10.20    2.30
  -3 -10 -11    9.80    2.30
   3 -10  11   10.20    2.40
  -3 -10 -11    9.70    2.60
   3  10 -11   10.70    2.80
  -3  10 -11   11.20    2.70
   3  10  11    9.50    1.80
  -3 -10  11   13.30    2.80
  -3 -10  11    6.90    2.00
  -3  10 -11    6.00    2.30
   3  10  11    7.10    1.90
   3 -10 -11   10.80    2.40
  -3  10 -11    8.10    2.50
   3 -10 -11   11.10    2.40
   4 -10  11   20.70    3.20
   4  10 -11   21.60    4.00
   4  10 -11   19.00    3.30
  -4  10  11   20.00    3.00
  -4 -10 -11   22.60    3.80
   4  10  11   18.80    2.80
  -4  10 -11   23.30    3.70
  -4 -10  11   26.50    3.40
   4 -10 -11   28.80    4.00
  -4  10 -11   20.70    3.40
   4  10  11   21.50    3.10
  -4  10 -11   20.10    3.80
  -4 -10  11   19.50    3.40
   5  10 -11   14.80    3.60
   5  10 -11   10.30    2.80
  -5 -10 -11    7.30    2.60
   5 -10  11    7.00    2.20
   5  10 -11    7.20    2.10
  -5  10  11    6.10    2.20
   5 -10 -11    6.10    2.20
  -5  10 -11    2.30    1.70
   5  10  11    5.80    1.90
  -5  10 -11    4.60    2.60
  -5 -10  11    6.40    2.30
   5  10  11    7.90    2.30
  -5  10 -11    8.00    2.50
  -6 -10 -11   13.90    3.10
  -6  10  11   12.10    2.70
   6  10 -11   11.80    2.60
   6  10 -11    8.10    3.50
   6 -10  11   12.80    3.00
  -6 -10  11   11.70    3.30
   6  10  11   15.40    3.00
  -6  10 -11    8.30    2.60
   6 -10 -11   14.00    3.20
   6  10  11   18.70    3.50
  -6  10 -11   16.80    3.90
  -6  10 -11   15.70    3.20
   7  10 -11    8.20    2.70
  -7  10  11   13.70    2.90
  -7 -10 -11   17.10    3.50
   7 -10  11   11.40    3.10
  -7  10 -11   18.10    4.60
  -7  10 -11   17.60    3.80
   7  10  11   13.80    3.90
  -7  10 -11   16.80    3.60
   7 -10 -11   11.80    3.10
  -7 -10  11   14.50    3.10
   7  10  11   16.30    3.20
   0 -11 -11    2.80    1.70
   0 -11 -11    4.40    2.00
   0 -11  11    3.70    1.80
   0  11 -11    4.30    2.00
   0  11  11    5.30    0.90
   0  11 -11    7.00    2.30
   0  11 -11    3.70    2.40
   1  11 -11   41.60    4.70
  -1 -11 -11   38.40    4.90
   1 -11  11   33.20    4.20
   1  11 -11   46.70    5.30
  -1  11  11   35.20    2.30
  -1 -11 -11   43.80    4.40
   1  11 -11   39.30    4.50
   1 -11 -11   37.10    4.10
  -1 -11  11   42.00    4.50
  -1 -11  11   43.90    4.60
  -1  11 -11   41.90    4.90
  -1  11 -11   36.30    4.70
  -1  11 -11   30.90    4.10
   1  11  11   38.10    2.60
   2  11 -11   23.10    3.80
  -2 -11 -11   19.60    3.50
   2 -11  11   21.70    3.40
   2  11 -11   19.20    3.40
  -2  11 -11   27.00    3.90
   2 -11 -11   19.60    3.20
   2 -11 -11   24.60    3.50
  -2  11 -11   21.20    3.60
   2  11  11   17.80    2.30
  -2  11 -11   14.50    3.20
  -2 -11  11   24.20    3.40
  -2 -11  11   24.80    3.60
  -3 -11 -11   33.30    4.60
  -3  11  11   29.40    3.80
   3  11 -11   38.20    4.60
   3 -11  11   35.10    4.30
   3  11 -11   37.90    5.00
  -3  11 -11   41.90    5.00
  -3 -11  11   32.50    4.30
   3  11  11   43.10    4.90
  -3 -11  11   35.80    4.30
  -3  11 -11   33.50    4.30
   3  11  11   36.70    3.50
  -3  11 -11   35.90    4.60
   3 -11 -11   36.20    4.50
   4  11 -11    4.10    1.90
  -4  11  11    0.70    1.70
   4  11 -11    3.50    2.00
   4 -11  11    0.70    1.80
  -4 -11 -11    3.00    2.40
   4  11 -11   -2.50    2.00
  -4  11 -11    2.00    2.00
   4  11  11    3.00    1.90
  -4  11 -11    0.90    1.60
  -4  11 -11    3.10    2.30
  -4 -11  11    3.80    1.90
   4 -11 -11    2.70    1.80
  -4 -11  11   -0.80    1.60
   4  11  11    2.20    1.40
   5 -11  11   30.00    4.20
   5  11 -11   30.40    4.10
  -5  11  11   29.00    3.90
  -5 -11 -11   23.70    4.40
   5  11 -11   34.60    5.40
  -5 -11  11   22.00    4.00
   5 -11 -11   27.60    4.30
  -5  11 -11   23.40    4.10
  -5  11 -11   22.20    4.00
   5  11  11   29.90    4.00
   5  11  11   23.80    3.50
  -5  11 -11   38.40    5.30
  -6  11  11    7.20    2.30
   6 -11  11    5.70    2.50
   6  11 -11    2.50    1.90
   6  11 -11    1.50    3.00
  -6 -11 -11    0.40    1.80
   6  11  11    3.30    2.30
   6  11  11    3.70    2.90
  -6  11 -11    3.90    2.40
  -6  11 -11    5.90    3.10
   6 -11 -11    3.60    2.60
  -6  11 -11    5.40    3.40
  -6 -11  11    1.40    2.70
   0  12  11    1.00    2.00
   0  12  11   -0.20    0.70
   0  12 -11    1.00    2.30
   0 -12  11    1.70    1.60
   0  12 -11    1.10    1.70
   0  12 -11   -0.80    1.60
   0 -12 -11    2.80    2.30
   1  12 -11   10.70    2.90
   1 -12  11   14.80    2.90
  -1 -12 -11   12.80    3.00
   1  12 -11   11.40    3.00
  -1  12  11    9.90    1.30
  -1  12 -11   12.40    3.00
   1 -12 -11    7.10    2.60
  -1  12 -11    8.80    2.60
  -1  12 -11    9.10    3.00
  -1 -12  11    8.30    2.30
   1  12  11    9.10    1.50
   2  12 -11    3.70    2.30
   2  12 -11    4.00    2.70
  -2 -12 -11    3.20    2.50
   2 -12  11    3.80    1.90
  -2 -12  11    1.50    2.20
   2 -12 -11    2.30    2.10
  -2  12 -11    2.10    1.90
   2  12  11   -0.80    1.20
  -2  12 -11    1.10    2.20
  -2  12 -11    0.40    1.80
  -2 -12  11    4.90    2.20
  -3  12  11    2.90    1.90
   3  12 -11    4.10    2.30
  -3 -12 -11    3.70    2.40
   3 -12  11    8.40    2.10
   3  12 -11    2.40    2.50
   3  12  11    2.70    1.50
   3 -12 -11    3.10    2.30
  -3  12 -11    6.60    2.90
  -3  12 -11    4.70    2.10
  -3 -12  11    6.00    2.20
  -3 -12  11    4.30    2.60
  -3  12 -11    5.10    2.00
  -4 -12 -11    3.70    2.70
   4 -12  11   -0.10    1.90
   4  12 -11    4.50    2.30
  -4  12  11    2.40    1.90
   4  12 -11    5.50    3.00
   4 -12 -11    3.70    2.40
  -4  12 -11    4.20    2.70
   4  12  11    0.90    1.50
   4  12  11    1.10    2.10
  -4  12 -11    0.20    2.20
  -4 -12  11    2.90    2.40
  -4  12 -11    4.30    2.60
  -5  12  11    4.50    2.00
   5 -12  11    9.50    3.10
   5  12 -11    5.70    3.60
  -5 -12 -11    8.40    3.60
   5  12 -11    5.90    2.60
   5  12  11    6.70    2.20
  -5  12 -11    2.40    3.00
  -5 -12  11    5.90    3.20
  -5  12 -11    8.40    3.20
   5  12  11    4.40    2.30
   5 -12 -11    8.80    3.00
  -5  12 -11    6.70    3.50
   0 -13  11    9.90    2.50
   0  13 -11   15.10    3.20
   0  13 -11   14.90    3.80
   0  13 -11   11.20    3.00
   1  13 -11   50.59    6.20
   1 -13  11   53.79    5.70
  -1 -13 -11   61.09    6.50
   1  13 -11   56.29    6.20
  -1  13 -11   55.19    6.50
  -1 -13  11   46.60    5.30
   1  13  11   50.39    3.30
  -1  13 -11   61.79    6.60
  -1  13 -11   53.99    6.10
   2 -13  11   -0.10    1.20
   2  13 -11   -0.50    2.70
   2  13 -11    0.30    2.00
  -2 -13 -11    1.90    2.50
  -2 -13  11    1.50    1.80
  -2  13 -11   -0.70    1.60
   2  13  11   -0.10    1.10
  -2  13 -11   -0.30    1.60
  -2  13 -11   -0.10    2.70
   3 -13  11   35.80    5.00
   3  13 -11   50.59    6.50
   3  13 -11   47.70    5.80
  -3 -13 -11   51.89    6.70
  -3  13 -11   42.20    5.70
   3  13  11   49.00    4.00
  -3  13 -11   42.40    5.80
  -3 -13  11   51.49    5.60
  -3  13 -11   48.50    5.80
  -3 -13  11   44.60    5.60
   0   0  12   27.00    2.50
   0   0 -12   30.50    2.40
   0   0  12   31.70    1.90
   0   0 -12   39.10    2.60
   0   0  12   33.70    2.80
   1   0  12    0.30    0.60
  -1   0  12    0.30    0.70
  -1   0 -12    0.50    0.60
   1   0 -12    0.20    0.60
   1   0  12    0.30    0.50
  -1   0 -12    0.10    0.50
   1   0 -12    1.00    0.60
  -1   0  12   -0.10    0.40
   1   0  12   -1.20    0.60
  -1   0  12   -0.70    0.60
   2   0 -12  256.97   11.50
  -2   0  12  246.88   11.80
   2   0  12  248.48   11.90
  -2   0 -12  265.27   11.40
  -2   0  12  237.08   11.70
   2   0 -12  231.88   11.70
   2   0  12  241.38   11.70
  -2   0 -12  238.28   11.70
   2   0  12  240.18   11.10
   3   0 -12    0.10    0.60
   3   0  12    0.40    0.60
  -3   0 -12    0.40    0.60
   3   0 -12    0.30    0.80
  -3   0 -12    0.80    0.90
   3   0  12    2.10    1.20
  -3   0  12   -0.10    0.70
   3   0  12    0.30    0.70
  -4   0 -12   59.39    4.00
   4   0  12   64.79    4.10
   4   0 -12   53.59    3.90
   4   0  12   61.99    4.70
  -4   0  12   56.99    3.80
   4   0  12   60.89    4.00
  -4   0  12   63.99    4.30
  -5   0  12    0.00    0.90
   5   0 -12    0.50    0.90
  -5   0  12    0.60    0.80
   5   0  12   -1.70    1.30
   5   0  12   -1.40    0.70
   5   0  12    0.10    0.90
  -5   0 -12   -0.80    0.70
  -6   0  12   90.79    6.10
   6   0  12  102.69    6.30
  -6   0  12  110.29    6.00
  -6   0 -12   96.29    6.10
   6   0 -12   97.59    6.20
  -7   0 -12    1.30    1.20
  -7   0  12    1.30    1.20
  -7   0  12    1.10    1.30
   7   0  12    1.00    1.30
   7   0 -12   -0.40    0.90
  -8   0 -12   23.10    3.30
   8   0 -12   16.10    2.90
  -8   0  12   15.30    2.70
   8   0  12   19.70    3.10
  -9   0  12    2.30    2.10
   9   0 -12   -1.20    1.40
   9   0  12   -0.70    1.40
  -9   0 -12    2.00    1.90
  10   0  12   75.69    6.10
  10   0 -12   87.69    6.90
 -10   0 -12   93.69    7.40
   0   1 -12    0.20    0.50
   0   1 -12    0.10    0.60
   0  -1  12   -0.70    0.30
   0  -1  12   -1.10    0.80
   0  -1 -12    1.30    0.70
   0  -1 -12   -0.50    0.60
   0   1 -12    1.10    1.10
   0   1  12    0.60    0.40
   0   1  12   -0.30    0.50
   0   1  12   -0.40    0.70
   0  -1  12    0.90    0.70
   1   1 -12   34.00    2.30
   1   1 -12   32.70    2.60
   1  -1  12   30.50    2.20
   1  -1  12   33.60    2.70
  -1  -1 -12   28.20    2.40
  -1   1  12   29.30    2.60
   1   1 -12   30.40    3.20
   1  -1  12   33.90    2.90
  -1   1  12   34.20    2.80
  -1  -1 -12   34.50    2.30
  -1  -1  12   34.80    2.00
   1   1  12   34.90    2.80
   1  -1 -12   32.30    2.40
  -1  -1  12   34.50    3.30
   1   1  12   33.00    3.10
   1   1  12   38.40    2.20
  -1  -1  12   26.60    2.60
  -1   1 -12   33.70    2.50
   1  -1 -12   36.00    2.60
  -1   1 -12   32.90    2.40
  -1   1 -12   38.60    3.10
   2   1 -12   91.49    5.40
   2  -1  12   83.29    5.30
  -2   1  12   83.09    5.10
  -2   1  12   80.59    5.10
   2  -1  12   88.09    4.90
   2   1 -12   83.69    4.90
   2  -1  12   91.59    4.70
  -2  -1 -12   82.59    4.30
  -2  -1 -12   77.19    4.80
   2   1 -12   85.39    4.50
   2   1  12   86.89    4.50
  -2  -1  12   87.59    4.10
  -2   1 -12   92.59    5.40
  -2  -1  12   77.09    5.20
   2  -1 -12   82.49    4.70
   2   1  12   81.09    5.10
  -2  -1  12   83.29    5.10
  -2   1 -12   92.19    4.70
   2   1  12   87.89    5.10
  -2   1 -12   79.89    4.70
   2  -1 -12   82.69    4.80
  -3  -1 -12   52.49    3.00
   3  -1  12   49.80    3.30
   3  -1  12   52.99    3.50
   3  -1  12   53.09    4.00
  -3   1  12   57.09    3.80
  -3  -1 -12   49.70    3.50
   3   1 -12   55.79    3.70
   3   1 -12   53.59    3.20
  -3   1 -12   52.39    3.30
   3  -1 -12   51.19    3.60
   3  -1 -12   48.80    3.30
   3   1  12   50.99    3.30
  -3   1 -12   49.20    3.40
  -3   1 -12   50.99    4.20
   3   1  12   45.00    3.70
   3   1  12   50.49    3.60
  -3  -1  12   46.30    3.60
   4  -1  12    4.80    1.20
   4   1 -12    3.00    1.10
   4  -1  12    2.80    1.60
  -4   1  12    4.60    1.40
  -4  -1 -12    2.70    1.10
  -4   1  12    4.70    1.20
   4  -1  12    4.50    1.30
   4   1  12    3.40    1.10
  -4   1 -12    5.00    1.20
  -4   1 -12    6.60    1.20
  -4   1 -12    5.10    1.10
   4  -1 -12    4.70    1.30
  -4  -1  12    5.30    1.20
   4   1  12    4.00    1.30
   4   1  12    2.80    1.60
  -4  -1  12    5.40    1.40
  -5   1  12   89.49    5.40
   5   1 -12   87.59    5.30
   5  -1  12   93.79    5.40
  -5   1  12   91.29    5.70
  -5  -1 -12   80.29    5.10
   5  -1  12   87.19    5.50
  -5  -1  12   96.29    6.10
   5   1  12   89.99    5.60
  -5   1 -12   78.49    5.10
  -5  -1  12   93.19    5.20
   5   1  12   90.89    5.50
   5  -1 -12   79.59    5.30
   5   1  12   91.89    6.20
  -6   1  12    2.90    1.30
  -6   1  12    4.40    1.60
  -6  -1 -12    5.10    1.60
   6  -1  12    5.50    1.50
   6   1 -12    4.70    1.50
   6  -1 -12    5.80    1.70
  -6  -1  12    7.70    1.60
   6   1  12    4.60    2.30
  -6   1 -12    6.00    1.70
  -6  -1  12    4.70    1.50
   6   1  12    3.70    1.50
   6   1  12    6.00    1.70
  -7   1  12   49.90    4.40
   7   1 -12   46.80    4.10
  -7   1  12   52.79    4.10
  -7  -1 -12   48.60    4.20
   7  -1  12   51.09    4.30
   7  -1 -12   52.49    4.30
  -7  -1  12   54.19    4.00
  -7   1 -12   49.30    4.10
  -7  -1  12   48.40    4.20
   7   1  12   48.00    4.10
  -8   1  12   19.40    2.90
   8   1 -12   16.20    3.00
  -8  -1 -12   16.70    3.00
   8  -1  12   14.50    2.80
  -8   1 -12   15.10    2.70
   8  -1 -12   15.90    2.80
   8   1  12   14.20    2.70
  -8  -1  12   15.40    2.90
  -9  -1 -12   35.10    4.30
   9  -1  12   34.80    4.40
   9   1 -12   35.00    4.20
  -9   1  12   41.60    4.60
   9  -1 -12   37.10    4.60
  -9   1 -12   34.00    4.40
   9   1  12   34.90    4.30
 -10   1  12    3.20    2.40
  10  -1  12    4.40    1.90
  10   1 -12    6.10    2.60
 -10  -1 -12    1.60    2.20
 -10   1 -12    1.70    1.70
  10   1  12    6.70    2.10
  10  -1 -12    2.90    2.20
   0   2 -12   34.80    2.80
   0   2  12   39.70    3.10
   0  -2  12   42.60    2.60
   0   2 -12   37.70    2.50
   0  -2 -12   37.10    2.80
   0   2 -12   48.20    3.50
   0  -2  12   46.60    3.40
   0   2  12   47.20    2.30
   0  -2  12   44.40    3.10
   0   2  12   37.00    3.10
   0  -2 -12   36.20    2.50
  -1  -2 -12   18.50    1.60
   1  -2  12   17.80    2.10
   1  -2  12   22.20    1.70
   1   2 -12   18.70    1.60
  -1  -2 -12   18.20    2.10
   1   2 -12   24.40    2.80
   1   2 -12   22.20    2.40
  -1   2  12   22.70    2.50
  -1   2  12   19.90    2.20
  -1  -2  12   26.00    2.80
  -1  -2  12   21.10    1.60
  -1  -2  12   20.30    2.20
   1   2  12   19.90    2.20
   1  -2 -12   19.60    2.20
  -1   2 -12   27.80    3.00
   1   2  12   19.70    1.50
   1  -2 -12   23.00    2.30
  -1   2 -12   20.50    2.00
   1   2  12   17.00    2.20
  -1   2 -12   19.10    2.10
   2   2 -12  129.59    6.10
  -2   2  12  135.39    7.00
   2  -2  12  118.49    6.50
  -2   2  12  115.99    6.90
   2   2 -12  117.99    6.90
   2   2 -12  122.39    6.70
  -2  -2 -12  123.29    6.60
   2  -2  12  128.29    6.70
  -2  -2 -12  120.79    5.90
   2  -2  12  143.59    7.40
   2   2  12  132.39    7.10
  -2   2 -12  129.09    6.50
   2  -2 -12  124.09    6.50
   2   2  12  130.49    6.40
   2   2  12  132.99    7.10
   2  -2 -12  110.99    6.50
  -2   2 -12  134.79    7.20
  -2  -2  12  130.69    7.10
  -2  -2  12  130.09    6.10
  -2   2 -12  131.39    6.40
   3  -2  12   30.30    2.40
   3   2 -12   29.90    2.20
   3   2 -12   35.00    3.60
  -3   2  12   22.80    2.70
   3   2 -12   30.70    3.10
   3  -2  12   28.90    2.40
   3  -2  12   28.30    3.30
   3   2 -12   33.10    2.10
   3   2  12   32.20    3.30
   3  -2 -12   29.00    2.90
  -3   2 -12   30.60    2.50
   3   2  12   29.20    2.70
  -3   2 -12   33.10    2.50
  -3  -2  12   25.90    2.80
  -3   2 -12   35.40    3.60
   3   2  12   27.60    2.30
   3  -2 -12   29.10    2.60
  -3   2 -12   34.70    2.60
   4  -2  12   92.09    5.50
   4  -2  12   93.79    5.40
  -4   2  12   89.69    5.70
   4   2 -12   90.69    5.70
  -4  -2 -12   88.79    5.60
  -4   2 -12  103.79    5.40
   4   2  12  103.19    5.90
  -4   2 -12   99.29    5.60
  -4  -2  12   94.79    5.10
  -4   2 -12  101.79    5.30
  -4  -2  12   98.49    5.90
   4  -2 -12   89.79    5.50
   4   2  12   93.79    5.50
  -4   2 -12   97.89    6.40
   4  -2 -12   94.69    5.70
   4   2  12  105.99    6.20
   5   2 -12   61.19    4.40
  -5   2  12   66.59    4.60
  -5   2  12   70.99    4.50
  -5  -2 -12   62.29    4.40
   5  -2  12   65.19    4.50
  -5  -2  12   58.59    4.60
  -5   2 -12   64.59    4.30
  -5   2 -12   61.49    5.30
   5   2  12   62.39    4.30
  -5  -2  12   68.19    4.10
   5   2  12   66.89    4.60
   5   2  12   65.19    5.10
   5  -2 -12   59.79    4.40
  -5   2 -12   64.59    5.10
   6  -2  12   10.20    2.00
  -6  -2 -12    9.60    2.00
  -6  -2 -12    7.50    1.80
  -6   2  12    6.10    1.60
   6   2 -12    6.80    1.80
  -6   2  12    7.40    1.70
   6   2  12    5.20    2.20
   6   2  12    5.80    1.70
  -6  -2  12   10.50    2.10
  -6   2 -12    9.30    1.90
   6  -2 -12    6.20    1.70
  -7   2  12   41.20    4.20
   7  -2  12   42.00    4.40
  -7  -2 -12   46.30    4.50
   7   2 -12   43.20    4.50
  -7   2 -12   41.10    4.30
   7   2  12   38.60    6.00
   7  -2 -12   37.40    4.20
   7   2  12   51.59    4.10
  -7  -2  12   45.80    4.10
  -8   2  12   28.80    3.70
   8   2 -12   32.70    3.90
   8  -2  12   30.60    4.00
  -8  -2 -12   32.60    4.10
  -8   2 -12   38.20    4.20
   8   2  12   35.30    4.10
   8  -2 -12   29.50    4.00
  -8  -2  12   42.30    4.60
   9  -2  12    8.20    2.60
  -9  -2 -12    9.40    2.60
   9   2 -12    7.80    2.30
  -9   2  12   10.40    2.50
   9   2  12    5.00    1.90
  -9   2 -12    9.30    2.50
   9  -2 -12    6.60    2.10
  10  -2  12    8.00    2.70
 -10   2  12   11.60    3.00
 -10  -2 -12   11.40    3.20
 -10   2 -12    6.70    2.20
  10   2  12   10.90    2.80
  10  -2 -12   14.30    3.00
   0   3 -12    0.00    1.00
   0   3  12    0.70    0.70
   0   3  12    0.00    0.70
   0  -3 -12    0.50    0.60
   0   3 -12   -0.10    0.50
   0   3 -12    0.70    0.70
   0  -3  12    0.40    1.10
   0  -3  12   -0.70    0.60
   0  -3  12   -0.40    0.50
   0  -3 -12   -0.10    0.60
  -1  -3 -12  256.67   12.40
   1  -3  12  259.97   12.30
  -1   3  12  242.88   12.10
   1  -3  12  244.38   11.60
  -1   3  12  255.77   11.80
   1   3 -12  267.67   11.70
  -1  -3 -12  247.68   11.80
   1   3 -12  260.67   12.50
   1  -3  12  257.47   11.90
   1   3 -12  270.77   12.90
  -1  -3  12  277.67   12.40
  -1   3 -12  260.17   12.40
   1   3  12  236.38   12.10
  -1   3 -12  262.97   12.90
  -1  -3  12  249.58   12.10
   1  -3 -12  254.07   12.40
   1   3  12  246.98   11.20
   1   3  12  227.08   11.80
   1  -3 -12  276.47   12.20
  -1  -3  12  255.27   11.40
   2  -3  12  103.19    5.60
   2  -3  12  103.39    5.70
   2   3 -12  112.79    6.40
   2   3 -12  111.29    5.30
  -2   3  12   99.09    5.90
   2   3 -12   97.29    5.90
  -2   3  12  102.39    5.80
  -2  -3 -12   98.49    5.80
  -2   3 -12  104.09    5.50
  -2  -3  12  113.49    6.10
   2   3  12   97.39    6.00
  -2   3 -12  108.39    5.80
   2  -3 -12   93.39    5.60
   2   3  12  112.09    5.40
   2   3  12  110.09    5.90
  -2   3 -12  113.99    5.80
  -2  -3  12  100.09    5.30
  -2   3 -12  108.19    6.30
   2  -3 -12   96.19    5.70
  -3   3  12    5.80    1.40
   3  -3  12    4.40    1.10
  -3  -3 -12    2.40    1.00
   3   3 -12    4.20    1.90
   3  -3  12    7.20    1.40
  -3   3  12    4.80    1.30
   3   3 -12    3.50    1.20
   3   3  12    4.00    1.40
   3  -3 -12    7.70    1.60
   3   3  12    4.80    1.50
  -3   3 -12    5.30    1.80
  -3   3 -12    4.80    1.30
   3  -3 -12    2.90    1.10
  -3  -3  12    2.90    1.10
  -3   3 -12    6.80    1.40
  -3   3 -12    4.40    1.10
  -3  -3  12    4.50    1.00
   3   3  12    3.00    1.00
   4  -3  12   74.49    4.70
  -4  -3 -12   77.79    4.90
  -4  -3 -12   65.29    4.80
   4   3 -12   64.99    4.70
  -4   3  12   72.69    4.70
   4   3 -12   71.39    4.20
  -4   3 -12   78.69    4.70
  -4   3 -12   80.29    4.60
  -4   3 -12   77.29    5.50
   4   3  12   78.59    5.20
   4  -3 -12   75.89    4.90
   4   3  12   79.79    4.60
   4  -3 -12   72.59    4.70
  -4   3 -12   79.99    4.70
  -4  -3  12   60.99    4.70
  -5  -3 -12   63.19    4.70
  -5   3  12   71.59    4.70
   5   3 -12   64.59    4.60
  -5   3  12   62.89    4.50
  -5  -3 -12   69.89    4.70
   5  -3  12   69.29    4.70
   5   3  12   73.59    4.60
  -5   3 -12   66.59    4.50
   5   3  12   69.79    5.30
   5  -3 -12   67.19    4.70
  -5  -3  12   64.09    4.80
  -5   3 -12   61.89    4.30
  -5   3 -12   65.59    4.20
  -6  -3 -12   10.50    2.30
   6   3 -12    7.10    1.80
  -6   3  12    7.00    1.70
  -6  -3 -12    6.20    1.70
   6  -3  12   10.80    2.00
  -6   3 -12    6.90    1.70
  -6  -3  12    3.90    1.50
   6   3  12    7.60    1.70
   6   3  12    6.40    2.30
   6  -3 -12    6.00    1.60
   7   3 -12   47.10    4.00
  -7  -3 -12   44.70    4.10
  -7  -3 -12   41.10    4.20
   7  -3  12   39.90    4.20
  -7   3  12   41.40    4.20
  -7  -3  12   43.10    4.60
   7  -3 -12   37.60    4.20
   7   3  12   42.20    5.10
  -7   3 -12   36.90    4.00
   7   3  12   45.20    4.50
  -8   3  12   19.40    3.30
   8   3 -12   26.40    3.50
   8  -3  12   24.30    3.50
  -8  -3 -12   16.10    2.90
   8  -3 -12   22.20    3.40
  -8   3 -12   22.70    3.30
  -8  -3  12   22.80    3.40
   8   3  12   20.60    3.40
  -9  -3 -12   13.20    2.90
   9   3 -12   25.50    3.90
   9  -3  12   23.80    3.70
  -9   3  12   23.70    3.60
  -9   3 -12   24.00    3.60
   9  -3 -12   18.00    3.30
   9   3  12   18.00    3.30
  -9  -3  12   20.10    3.60
 -10  -3 -12   18.00    3.70
  10  -3  12   22.90    4.30
 -10   3  12   24.70    4.20
  10   3  12   26.10    3.90
 -10   3 -12   16.10    2.90
  10  -3 -12   21.20    3.70
   0   4 -12  177.58    9.50
   0   4  12  185.28    9.40
   0   4  12  180.38    8.80
   0  -4 -12  180.28    8.90
   0  -4  12  179.68    9.10
   0  -4  12  181.68    8.80
   0   4 -12  202.48   10.00
   0  -4 -12  197.18    9.50
   1   4 -12  461.75   21.20
   1  -4  12  456.95   20.20
  -1  -4 -12  463.05   21.10
  -1  -4 -12  446.16   20.30
   1  -4  12  438.66   20.30
  -1   4  12  454.25   20.10
   1   4 -12  475.95   21.50
  -1   4  12  409.56   20.50
  -1   4 -12  435.06   20.90
   1  -4 -12  467.25   21.00
  -1   4 -12  455.15   20.30
  -1   4 -12  476.05   21.50
   1  -4 -12  513.55   20.90
  -1  -4  12  453.85   20.60
  -1  -4  12  439.06   19.90
  -1   4 -12  460.35   21.10
   1   4  12  484.75   20.30
   1   4  12  480.55   19.70
   1   4  12  443.46   20.80
   2   4 -12  100.49    5.90
   2  -4  12   93.99    5.40
   2  -4  12   98.79    5.40
  -2   4  12   95.89    5.80
  -2  -4 -12   93.89    5.60
  -2   4  12   93.39    5.40
   2   4 -12  105.29    6.30
  -2   4 -12   98.09    5.20
  -2  -4  12  104.89    5.90
   2   4  12  101.59    5.20
  -2   4 -12   92.69    5.50
  -2   4 -12  100.79    5.70
   2  -4 -12   93.69    5.50
   2   4  12   93.79    5.50
  -2  -4  12   91.19    5.10
  -2   4 -12  102.59    6.10
   2  -4 -12   87.49    5.40
   3   4 -12  360.16   17.40
  -3  -4 -12  363.96   17.30
   3  -4  12  350.36   16.80
  -3  -4 -12  372.56   17.60
  -3   4  12  384.66   17.20
  -3   4  12  366.26   16.90
   3  -4  12  342.17   16.40
   3   4 -12  407.16   18.00
   3  -4 -12  349.37   17.20
   3   4  12  392.36   16.60
  -3   4 -12  374.16   17.10
   3  -4 -12  366.76   17.20
   3   4  12  345.17   17.00
  -3   4 -12  364.86   17.80
  -3  -4  12  370.66   17.30
  -3   4 -12  361.46   17.20
  -3   4 -12  387.76   16.90
  -3  -4  12  369.66   16.40
  -4  -4 -12  199.28   10.60
   4   4 -12  185.58   10.20
   4   4 -12  203.38   10.90
   4  -4  12  179.18    9.60
  -4   4  12  188.88    9.80
  -4  -4 -12  197.28   10.20
   4   4 -12  230.18    9.70
  -4  -4  12  180.38   10.00
   4   4  12  193.38    9.50
  -4   4 -12  192.48    9.80
   4   4  12  199.58   10.10
  -4   4 -12  205.08    9.90
   4  -4 -12  194.98   10.10
  -4   4 -12  197.88   10.00
  -4   4 -12  185.78   10.70
   4  -4 -12  181.88   10.20
  -5  -4 -12  110.99    6.70
   5   4 -12  110.39    6.80
   5  -4  12  116.29    6.70
  -5   4  12  115.49    6.70
  -5   4  12  103.59    6.50
  -5  -4 -12  107.89    7.00
   5   4 -12  108.79    6.50
  -5   4 -12  127.39    6.80
   5   4  12  110.89    6.40
  -5   4 -12  108.29    6.50
   5   4  12  110.69    7.10
  -5   4 -12  122.89    7.80
  -5   4 -12  115.09    6.50
  -5  -4  12  112.09    7.00
   5  -4 -12  117.29    7.00
  -6  -4 -12   11.50    2.50
   6   4 -12   13.80    2.40
  -6  -4 -12    9.50    2.00
   6  -4  12   11.00    2.10
  -6   4  12   12.40    2.30
  -6   4 -12   13.00    2.20
  -6   4 -12   14.50    2.50
   6   4  12    8.90    1.90
  -6  -4  12   11.80    2.40
   6   4  12   14.10    3.00
   6  -4 -12   13.10    2.40
  -6   4 -12   14.80    2.50
  -7  -4 -12   21.80    3.30
   7  -4  12   17.40    2.90
   7   4 -12   22.40    3.10
  -7   4  12   21.50    3.10
  -7  -4 -12   18.80    3.00
  -7  -4  12   24.70    3.60
  -7   4 -12   19.90    3.10
   7   4  12   26.20    3.20
   7  -4 -12   19.80    3.10
   7   4  12   26.80    4.00
  -8   4  12    3.40    1.90
   8   4 -12   -0.10    1.30
   8  -4  12   -0.20    1.50
  -8  -4 -12   -0.40    1.70
  -8  -4 -12    1.20    1.70
   8   4  12   -2.10    2.60
  -8   4 -12    4.80    1.80
   8   4  12    0.10    1.50
   8  -4 -12    1.30    1.50
  -8  -4  12   -0.40    1.50
   9  -4  12    1.50    2.10
  -9   4  12    5.00    2.10
  -9  -4 -12    0.40    1.60
  -9   4 -12    4.00    2.10
   9  -4 -12    1.50    1.80
   9   4  12    8.60    2.30
  -9  -4  12    2.70    2.10
 -10   4  12    3.80    2.70
 -10  -4 -12    0.80    2.40
  10  -4  12    5.00    3.00
  10  -4 -12    0.10    1.70
 -10   4 -12    2.60    2.00
  10   4  12    7.70    2.30
   0  -5 -12    0.30    0.80
   0   5  12   -0.50    0.80
   0  -5  12    1.50    1.00
   0   5 -12    0.20    0.90
   0  -5 -12    0.30    0.70
   0  -5  12    0.20    0.70
   0   5 -12   -1.10    1.10
   0   5  12   -1.00    0.60
   1   5 -12   12.70    2.30
  -1   5  12   12.40    2.00
  -1   5  12    9.80    1.50
  -1  -5 -12   16.20    2.00
   1  -5  12   10.30    1.70
  -1  -5 -12   13.30    1.90
   1  -5  12    9.00    1.60
   1   5 -12   15.40    2.30
   1   5  12    8.80    1.90
   1   5  12    9.90    1.60
  -1   5 -12    6.90    1.90
  -1  -5  12   11.70    1.60
  -1   5 -12    9.90    1.90
   1  -5 -12   10.90    1.90
  -1  -5  12   11.10    1.90
  -1   5 -12   11.50    1.90
   1  -5 -12   12.00    1.70
   1   5  12   11.10    1.40
  -2  -5 -12  115.19    7.00
   2   5 -12  132.19    7.30
  -2   5  12  105.89    5.80
   2   5 -12  121.09    6.90
  -2  -5 -12  118.19    6.70
   2  -5  12  112.89    6.00
   2  -5  12  112.09    6.20
  -2   5  12  100.79    6.30
  -2  -5  12  110.19    5.90
   2  -5 -12  123.19    6.60
  -2   5 -12  115.29    6.60
   2   5  12  104.49    6.00
   2  -5 -12  102.29    6.40
  -2   5 -12  112.39    6.60
  -2   5 -12  125.79    6.10
  -2  -5  12  118.99    6.50
   2   5  12  108.89    5.70
  -2   5 -12  111.19    7.00
   3  -5  12   60.39    4.10
  -3  -5 -12   60.59    4.40
   3   5 -12   58.19    4.50
  -3   5  12   60.09    4.00
   3   5 -12   60.49    4.90
  -3   5  12   60.39    4.30
  -3  -5 -12   61.39    4.60
  -3   5 -12   71.59    4.50
   3  -5 -12   65.49    4.30
  -3  -5  12   62.59    3.90
  -3   5 -12   59.59    3.90
  -3   5 -12   65.99    5.00
   3   5  12   62.59    3.90
   3  -5 -12   64.79    4.40
  -3   5 -12   64.19    4.40
  -3  -5  12   50.79    4.20
   3   5  12   65.99    4.40
  -4  -5 -12   45.10    3.80
   4   5 -12   41.20    3.70
  -4  -5 -12   49.60    4.10
  -4   5  12   47.20    3.80
   4   5 -12   54.29    3.60
   4  -5  12   41.00    3.50
   4   5 -12   56.39    4.70
   4  -5 -12   44.60    3.60
  -4   5 -12   49.70    3.60
   4   5  12   49.80    3.60
  -4   5 -12   47.40    3.80
   4  -5 -12   54.29    4.10
  -4   5 -12   57.49    5.30
   4   5  12   57.19    4.20
  -4  -5  12   46.50    4.00
  -4   5 -12   43.40    3.60
  -5  -5 -12    6.00    1.90
   5   5 -12    8.50    2.00
  -5   5  12   10.40    2.20
   5   5 -12    7.70    1.60
   5  -5  12    8.00    1.80
  -5  -5 -12   11.10    2.20
  -5  -5  12    5.50    1.80
   5  -5 -12    7.30    2.00
  -5   5 -12    9.60    1.90
   5   5  12    7.10    1.70
   5   5  12    8.70    2.30
  -5   5 -12   10.00    1.90
  -5   5 -12    9.50    1.90
  -5   5 -12   12.90    2.90
   6  -5  12   35.70    3.90
  -6  -5 -12   38.30    4.20
   6   5 -12   36.20    4.10
  -6   5  12   34.00    3.80
  -6  -5 -12   44.70    4.10
  -6   5 -12   35.50    3.80
   6  -5 -12   38.60    4.30
   6   5  12   40.80    4.10
  -6  -5  12   42.50    4.60
  -6   5 -12   45.40    3.80
   6   5  12   43.40    4.70
  -6   5 -12   54.89    5.80
  -6   5 -12   43.30    3.70
   7   5 -12    7.60    2.10
  -7   5  12    7.60    2.10
   7  -5  12    9.10    2.20
  -7  -5 -12    7.50    2.10
  -7  -5 -12    9.90    2.20
  -7  -5  12   10.50    2.50
   7   5  12    9.30    2.90
   7  -5 -12    8.30    2.20
   7   5  12   12.40    2.30
  -7   5 -12   12.20    2.60
  -8   5  12   23.30    3.70
  -8  -5 -12   27.30    3.80
   8   5 -12   27.20    3.80
  -8  -5 -12   24.70    3.80
   8  -5  12   25.60    3.50
   8  -5 -12   20.00    3.50
   8   5  12   25.00    4.50
   8   5  12   25.90    3.50
  -8  -5  12   25.70    3.90
  -8   5 -12   30.70    4.00
  -9   5  12    3.40    2.30
  -9  -5 -12    0.40    1.90
   9  -5  12   -0.30    1.90
  -9  -5  12    3.90    2.10
  -9   5 -12    1.00    1.70
   9  -5 -12    6.10    2.30
   9   5  12    0.00    1.60
   0   6 -12  107.69    6.30
   0   6  12   86.89    5.00
   0  -6  12   96.39    5.50
   0   6 -12   97.59    6.50
   0  -6 -12  110.99    5.70
   0   6  12   94.69    5.90
   0  -6  12  100.29    5.70
   0   6 -12   99.19    6.30
   0  -6 -12   99.49    6.00
   1   6 -12  470.75   22.20
   1  -6  12  448.16   20.90
   1   6 -12  493.15   22.60
  -1   6  12  458.35   20.40
   1  -6  12  468.45   20.90
  -1   6  12  463.75   21.40
  -1  -6 -12  464.65   21.90
  -1   6 -12  516.65   22.20
   1   6  12  434.36   21.40
   1   6  12  489.65   20.60
   1  -6 -12  482.45   22.00
   1  -6 -12  444.46   21.60
  -1   6 -12  488.65   22.30
  -1  -6  12  478.75   21.30
  -1   6 -12  501.15   22.50
  -1  -6  12  450.75   20.90
   2   6 -12  311.37   15.00
   2   6 -12  271.37   14.40
   2  -6  12  305.87   13.80
  -2  -6 -12  296.17   14.40
   2  -6  12  271.47   13.90
  -2   6  12  277.17   13.50
  -2  -6 -12  309.97   14.80
  -2   6  12  301.27   14.40
   2   6  12  294.07   13.60
  -2   6 -12  315.87   14.50
  -2  -6  12  314.17   14.50
  -2  -6  12  293.37   13.90
   2  -6 -12  281.67   14.20
  -2   6 -12  294.77   14.80
   2   6  12  296.57   13.80
   2  -6 -12  313.37   14.20
  -2   6 -12  276.47   14.40
  -3  -6 -12  415.56   20.00
   3  -6  12  384.96   18.20
  -3  -6 -12  415.76   19.40
   3   6 -12  439.76   20.20
  -3   6  12  379.56   17.70
  -3   6  12  404.36   18.40
   3   6 -12  399.96   19.60
   3  -6 -12  404.06   19.30
   3   6  12  385.16   18.10
  -3  -6  12  385.46   18.60
  -3   6 -12  437.76   20.20
  -3   6 -12  416.46   19.30
   3   6  12  393.96   17.80
   3  -6 -12  391.06   19.30
  -3  -6  12  391.66   17.90
  -3   6 -12  430.16   19.60
   4   6 -12   26.50    3.70
   4   6 -12   20.60    2.50
   4  -6  12   13.80    2.30
  -4   6  12   19.60    3.10
  -4  -6 -12   15.40    2.40
  -4  -6 -12   16.50    2.80
   4   6 -12   19.30    2.80
  -4  -6  12   18.20    2.80
  -4   6 -12   23.80    2.60
   4  -6 -12   15.40    2.40
  -4   6 -12   21.50    2.90
   4   6  12   19.30    2.40
   4  -6 -12   25.10    3.10
  -4   6 -12   13.90    2.50
   4   6  12   19.90    2.80
  -4   6 -12   20.10    3.30
  -5  -6 -12  248.58   12.60
   5  -6  12  222.88   11.90
  -5   6  12  234.38   12.10
   5   6 -12  256.27   12.20
   5   6 -12  227.78   12.60
  -5  -6 -12  256.87   13.20
   5   6 -12  255.57   13.50
   5   6  12  243.58   12.40
   5   6  12  231.58   11.80
  -5   6 -12  251.67   13.40
  -5   6 -12  219.48   12.30
  -5   6 -12  250.67   12.70
  -5   6 -12  253.87   12.20
  -5  -6  12  238.78   12.60
   5  -6 -12  232.08   12.60
  -6  -6 -12    5.20    2.00
  -6  -6 -12    3.60    1.70
   6  -6  12    5.00    1.60
   6   6 -12    5.10    1.80
   6   6 -12    8.50    2.00
  -6   6  12    4.30    1.80
  -6   6 -12    3.20    1.70
   6   6  12    3.60    1.40
  -6   6 -12    5.30    1.80
  -6  -6  12    3.10    1.60
  -6   6 -12    5.00    2.60
   6   6  12    8.40    2.40
   6  -6 -12    5.30    1.80
  -6   6 -12    8.30    1.80
  -7  -6 -12   10.70    2.70
   7   6 -12   17.90    3.00
  -7   6  12   10.90    2.40
  -7  -6 -12   18.30    3.20
   7  -6  12   16.90    3.00
  -7   6 -12   12.80    2.70
  -7   6 -12    9.50    2.40
  -7   6 -12   16.40    2.90
  -7  -6  12   11.50    2.70
   7   6  12   17.30    3.50
   7   6  12   18.60    2.90
   7  -6 -12   12.80    2.80
   8  -6  12   -3.30    1.60
  -8   6  12    1.60    1.80
  -8  -6 -12   -0.40    1.60
  -8  -6 -12   -0.40    1.60
   8   6  12    0.90    1.50
   8   6  12    3.10    2.80
   8  -6 -12    0.90    1.50
  -8   6 -12   -2.10    1.30
  -8  -6  12    0.00    1.70
  -9  -6 -12    5.40    3.20
  -9   6  12    2.80    2.40
   9  -6  12    2.20    2.20
  -9  -6 -12   -1.30    1.80
   9   6  12   -1.80    1.10
   9  -6 -12    1.20    1.80
  -9   6 -12   -1.60    1.70
  -9  -6  12    1.70    2.10
   0   7 -12    2.60    1.30
   0   7 -12    2.60    1.40
   0  -7  12    0.30    0.80
   0  -7  12    1.20    1.10
   0   7  12    0.30    0.60
   0  -7 -12   -0.10    0.90
   0  -7 -12    0.60    1.00
   0   7 -12   -0.60    1.40
   0   7  12    0.80    1.10
  -1  -7 -12   64.39    4.90
   1  -7  12   61.79    4.30
  -1   7  12   69.89    4.80
  -1   7  12   57.29    3.60
   1   7 -12   61.49    5.00
   1   7 -12   56.59    4.50
   1  -7  12   75.09    4.50
  -1  -7 -12   66.19    4.50
  -1  -7  12   56.89    4.20
   1  -7 -12   60.19    4.20
  -1   7 -12   64.19    4.70
  -1  -7  12   72.19    4.70
  -1   7 -12   56.19    4.50
   1   7  12   60.69    3.80
  -1   7 -12   65.99    5.00
   1  -7 -12   63.39    4.50
  -2  -7 -12   38.90    3.80
  -2   7  12   42.10    3.60
   2   7 -12   44.10    4.60
  -2  -7 -12   33.60    3.90
   2   7 -12   37.30    4.00
  -2   7  12   35.00    2.70
   2  -7  12   43.60    3.50
   2   7  12   45.00    3.20
   2   7  12   43.70    3.20
   2  -7 -12   42.10    3.50
   2  -7 -12   40.80    3.50
  -2   7 -12   45.80    4.70
  -2   7 -12   38.60    4.10
  -2  -7  12   43.70    3.80
  -2  -7  12   39.70    3.80
  -2   7 -12   41.20    4.10
   3  -7  12   65.19    4.80
  -3  -7 -12   71.89    5.60
   3   7 -12   79.59    5.80
  -3  -7 -12   79.19    5.20
  -3   7  12   70.79    4.40
  -3   7  12   75.19    5.10
   3   7 -12   66.39    5.10
  -3  -7  12   65.69    5.10
   3  -7 -12   81.59    5.20
   3   7  12   75.69    4.70
  -3   7 -12   82.19    5.90
   3   7  12   80.19    4.90
  -3   7 -12   72.19    5.30
  -3  -7  12   75.39    4.80
   3  -7 -12   67.29    4.90
  -3   7 -12   77.09    5.10
   4   7 -12    1.20    1.80
   4  -7  12    2.70    1.40
  -4   7  12    1.10    1.30
   4   7 -12    1.30    1.50
  -4  -7 -12    2.00    1.30
  -4  -7 -12    4.70    1.70
  -4   7 -12    2.90    1.40
   4  -7 -12    1.90    1.30
  -4  -7  12    1.30    1.50
  -4   7 -12    1.80    2.00
   4  -7 -12    1.60    1.30
  -4   7 -12    1.40    1.40
  -4  -7  12    4.60    1.30
   4   7  12    0.50    1.10
   4   7  12    2.40    1.50
  -5  -7 -12   50.59    4.50
   5   7 -12   65.49    4.90
  -5  -7 -12   67.19    5.40
   5   7 -12   68.79    6.50
   5   7 -12   59.19    4.50
   5  -7  12   60.29    4.70
  -5   7  12   57.99    4.60
  -5   7 -12   54.99    5.80
  -5   7 -12   62.29    4.90
   5   7  12   60.79    4.50
  -5   7 -12   58.19    4.80
  -5  -7  12   59.09    5.00
   5  -7 -12   66.99    5.10
   5   7  12   62.49    4.90
   6   7 -12    4.90    1.90
  -6   7  12    0.70    1.40
  -6  -7 -12    3.50    2.00
   6  -7  12    0.50    1.40
  -6  -7 -12    4.00    1.90
   6   7 -12    4.80    1.80
  -6   7 -12    3.40    1.80
  -6   7 -12    0.60    1.40
   6   7  12    4.20    1.60
  -6   7 -12    2.60    1.60
  -6  -7  12   -1.10    1.40
   6   7  12    1.70    1.90
   6  -7 -12    3.30    1.90
  -6   7 -12    5.10    2.70
  -7  -7 -12   42.90    4.70
  -7   7  12   37.40    4.30
   7  -7  12   40.20    4.50
  -7  -7 -12   42.60    5.20
   7   7 -12   47.30    4.90
  -7   7 -12   43.10    5.90
   7  -7 -12   40.00    4.80
   7   7  12   40.70    4.40
  -7   7 -12   41.80    4.70
  -7   7 -12   36.30    4.40
   7   7  12   41.80    5.20
  -7  -7  12   38.10    4.90
  -7   7 -12   42.90    4.60
  -8   7  12   49.90    5.50
  -8  -7 -12   41.90    4.90
   8  -7  12   45.10    5.20
  -8  -7 -12   40.40    5.20
   8   7  12   49.40    5.30
  -8  -7  12   59.19    6.30
   8  -7 -12   39.40    5.10
   8   7  12   34.90    5.30
  -8   7 -12   49.90    5.30
  -9  -7 -12    5.90    2.90
  -9  -7 -12   13.60    3.50
   9  -7  12   13.20    3.60
  -9   7  12   11.30    3.60
  -9  -7  12   10.20    3.10
   9   7  12   16.80    4.80
   9  -7 -12    9.40    2.90
  -9   7 -12   10.10    3.10
   9   7  12   16.10    3.30
   0   8 -12  280.07   14.00
   0   8 -12  270.37   13.80
   0  -8  12  242.08   12.60
   0   8 -12  253.87   13.50
   0  -8  12  265.37   12.70
   0   8  12  256.67   11.60
   0  -8 -12  275.87   13.40
   0   8  12  251.67   13.10
   1   8 -12   12.60    2.70
  -1  -8 -12   15.90    2.40
  -1   8  12   15.40    2.50
   1  -8  12   14.30    2.40
   1   8 -12   14.20    2.60
  -1   8  12   16.90    1.70
  -1  -8 -12   16.00    2.80
   1  -8 -12   14.70    2.50
   1  -8 -12   22.00    2.60
  -1   8 -12    9.90    2.20
   1   8  12   11.70    1.60
  -1   8 -12   12.30    2.40
  -1  -8  12   13.20    2.40
  -1   8 -12   12.70    2.80
  -1  -8  12   14.70    2.40
  -2   8  12   73.19    4.10
  -2  -8 -12   80.69    5.30
  -2   8  12   76.29    5.10
   2  -8  12   61.49    4.70
   2   8 -12   69.49    5.70
  -2  -8 -12   64.09    5.50
   2   8 -12   80.39    5.50
   2   8  12   69.29    4.40
  -2   8 -12   64.89    5.40
   2   8  12   71.39    5.00
  -2  -8  12   72.39    4.90
   2  -8 -12   78.99    5.20
   2  -8 -12   73.79    5.10
  -2   8 -12   81.89    5.50
  -2  -8  12   66.29    5.00
  -2   8 -12   70.89    5.50
   3   8 -12   92.09    6.70
   3  -8  12   77.59    5.50
   3   8 -12   86.99    6.20
  -3  -8 -12   98.89    6.10
  -3  -8 -12   87.49    6.40
  -3   8 -12   93.19    6.10
   3  -8 -12   87.99    6.00
   3  -8 -12   94.59    6.10
   3   8  12   88.29    5.30
  -3  -8  12   92.69    5.50
  -3   8 -12   91.79    6.30
   3   8  12   79.29    5.10
  -3   8 -12   88.79    6.60
  -3  -8  12   77.99    5.70
  -4   8  12   64.49    4.80
   4  -8  12   65.19    4.80
  -4  -8 -12   62.49    5.40
   4   8 -12   70.19    5.40
   4   8 -12   75.09    6.00
  -4  -8 -12   67.99    5.10
  -4  -8  12   53.89    4.90
  -4   8 -12   75.89    5.50
  -4   8 -12   59.79    5.00
  -4   8 -12   68.69    6.50
  -4  -8  12   61.39    4.50
   4   8  12   63.39    4.60
   4  -8 -12   66.29    5.00
   4   8  12   67.29    4.80
   5   8 -12   56.49    6.30
   5   8 -12   55.09    4.50
  -5   8  12   57.49    4.60
  -5  -8 -12   49.80    5.60
   5   8 -12   57.29    4.90
  -5  -8 -12   60.29    4.80
   5  -8  12   57.29    4.70
   5  -8 -12   55.59    4.80
  -5  -8  12   49.70    4.70
   5   8  12   47.30    4.90
   5   8  12   63.89    4.60
  -5   8 -12   66.89    6.40
  -5   8 -12   57.39    4.90
  -5   8 -12   58.29    4.90
   6   8 -12    0.90    3.00
  -6  -8 -12    0.70    1.60
  -6   8  12    2.90    1.60
   6   8 -12    4.90    2.00
   6  -8  12    0.70    1.30
   6   8 -12    3.80    1.80
  -6  -8 -12    2.20    2.30
   6   8  12    3.60    2.10
  -6   8 -12    0.80    1.60
   6   8  12    4.30    1.90
   6  -8 -12    0.30    1.50
  -6   8 -12    4.10    1.90
  -6  -8  12    2.20    1.70
  -6   8 -12   -0.20    2.10
   7  -8  12   16.00    3.10
  -7  -8 -12   15.30    3.40
  -7   8  12   12.70    2.70
  -7  -8 -12   18.40    3.30
   7   8  12   13.50    3.30
  -7   8 -12   13.80    3.00
  -7   8 -12   20.80    4.40
   7  -8 -12   17.10    3.40
  -7  -8  12   15.70    3.40
   7   8  12   13.50    2.70
  -7   8 -12   22.30    3.50
  -8  -8 -12    5.70    2.60
  -8  -8 -12    4.10    3.00
  -8   8  12    2.90    1.60
   8  -8  12    5.50    2.60
  -8  -8  12    4.00    2.20
   8   8  12    5.40    3.30
   8   8  12    4.30    2.00
   8  -8 -12    4.80    2.30
   0   9 -12   -0.80    1.20
   0   9 -12    1.40    1.40
   0  -9  12    0.20    1.10
   0   9 -12    0.90    1.70
   0  -9 -12    0.40    1.30
   0   9  12   -0.40    0.60
   0   9  12   -0.50    1.00
   0  -9  12    0.70    1.00
  -1  -9 -12   21.20    3.40
  -1  -9 -12   26.60    3.20
  -1   9  12   23.30    1.90
   1  -9  12   21.30    2.90
   1   9 -12   23.30    3.40
   1   9 -12   22.90    3.50
  -1   9  12   22.70    3.20
  -1  -9  12   24.30    3.20
  -1  -9  12   26.50    3.20
   1  -9 -12   22.60    3.00
  -1   9 -12   29.10    3.80
   1  -9 -12   18.20    3.10
  -1   9 -12   27.80    3.80
  -1   9 -12   22.00    3.30
   1   9  12   23.30    2.20
  -2   9  12    9.00    1.50
   2  -9  12    7.90    1.90
  -2  -9 -12    7.90    2.30
  -2   9  12    8.40    2.10
   2   9 -12   11.50    2.80
   2   9 -12    5.30    1.70
  -2  -9 -12   10.90    2.20
  -2  -9  12    9.30    2.20
   2  -9 -12    7.40    2.00
   2   9  12    9.60    1.70
  -2  -9  12    9.50    2.10
  -2   9 -12    9.50    2.40
  -2   9 -12   11.30    2.70
  -2   9 -12    9.50    2.50
   2  -9 -12   11.50    2.20
   3   9 -12   19.20    3.20
  -3  -9 -12   15.60    3.00
  -3  -9 -12   22.70    3.10
   3   9 -12   24.20    3.90
   3  -9  12   17.00    2.70
   3  -9 -12   16.50    2.70
  -3   9 -12   14.50    2.70
   3   9  12   15.10    2.40
   3  -9 -12   22.50    3.20
  -3   9 -12   17.40    3.00
   3   9  12   15.60    2.30
  -3   9 -12   20.00    3.50
  -3  -9  12   16.40    2.60
  -3  -9  12   15.30    2.80
   4   9 -12   11.60    2.70
  -4  -9 -12   12.20    2.50
   4  -9  12   13.10    2.60
  -4   9  12   12.50    2.50
  -4  -9 -12   11.10    2.70
   4   9 -12   11.00    3.00
   4  -9 -12    9.30    2.30
   4   9  12   10.50    2.10
  -4  -9  12    9.70    2.20
  -4   9 -12   12.80    3.10
  -4   9 -12    8.00    2.40
  -4   9 -12    9.80    2.50
   4   9  12   10.50    2.20
  -4  -9  12   10.20    2.50
   5   9 -12   39.10    4.30
   5  -9  12   39.00    4.50
  -5  -9 -12   54.59    5.30
  -5  -9 -12   35.80    4.80
   5   9 -12   52.09    5.20
  -5   9  12   45.60    4.60
   5   9 -12   51.89    6.10
  -5  -9  12   47.40    5.30
   5   9  12   47.80    4.80
  -5   9 -12   46.80    5.60
   5   9  12   47.70    4.80
  -5   9 -12   48.50    5.10
  -5   9 -12   43.60    5.10
   5  -9 -12   52.39    5.40
   6  -9  12   16.20    3.00
  -6  -9 -12   14.80    3.20
  -6   9  12   18.50    3.20
   6   9 -12   15.30    2.80
   6   9 -12   19.20    4.20
  -6  -9 -12   15.30    3.20
   6   9 -12   16.00    3.70
   6  -9 -12   12.20    2.90
  -6   9 -12   17.20    3.40
  -6   9 -12   13.50    3.00
   6   9  12   13.10    2.70
   6   9  12   13.60    3.10
  -6  -9  12   17.70    3.50
  -6   9 -12   18.30    3.90
   7   9 -12   37.10    4.50
  -7   9  12   43.60    4.80
  -7  -9 -12   34.70    5.00
   7  -9  12   38.90    4.80
  -7   9 -12   39.60    5.00
  -7  -9  12   32.70    4.60
  -7   9 -12   46.00    6.20
  -7   9 -12   33.60    4.60
   7   9  12   40.70    5.40
   7  -9 -12   32.90    4.60
   7   9  12   35.80    4.50
   0  10  12   18.30    1.80
   0  10  12   16.10    2.90
   0 -10  12   16.60    2.70
   0  10 -12   10.80    2.30
   0  10 -12   17.90    3.00
   0  10 -12   19.30    3.40
   0 -10 -12   12.80    2.50
   1 -10  12   64.59    4.80
   1  10 -12   58.19    5.80
  -1  10  12   54.99    3.20
  -1 -10 -12   61.79    4.70
  -1 -10 -12   58.29    5.20
  -1  10  12   54.99    4.80
   1  10 -12   68.89    5.40
  -1  10 -12   57.49    5.70
  -1  10 -12   62.89    5.00
  -1 -10  12   43.60    4.60
   1 -10 -12   58.99    4.70
  -1  10 -12   49.20    5.30
   1  10  12   54.29    3.40
  -1 -10  12   54.89    4.70
   2  10 -12   65.99    6.40
  -2 -10 -12   68.79    5.90
  -2  10  12   65.59    3.90
  -2 -10 -12   67.19    5.20
   2  10 -12   65.29    5.60
   2 -10  12   71.69    5.30
  -2 -10  12   70.99    5.30
  -2  10 -12   61.69    6.10
  -2  10 -12   67.89    5.50
   2 -10 -12   72.59    5.30
  -2  10 -12   76.59    5.80
   2  10  12   72.49    4.40
   2 -10 -12   67.49    5.20
  -2 -10  12   62.59    5.30
  -3 -10 -12   20.70    3.10
  -3 -10 -12   21.00    3.90
   3  10 -12   20.00    3.50
   3 -10  12   20.20    3.10
   3  10 -12   19.60    3.70
   3  10  12   20.90    2.60
  -3  10 -12   19.50    3.20
  -3 -10  12   16.50    3.00
  -3  10 -12   17.80    3.10
   3 -10 -12   22.10    3.30
   3 -10 -12   17.90    3.10
  -3 -10  12   18.90    3.00
  -3  10 -12   27.00    3.90
  -4 -10 -12   27.90    3.90
  -4  10  12   19.20    3.20
   4 -10  12   23.10    3.50
   4  10 -12   28.50    4.40
   4  10 -12   34.40    4.30
  -4 -10 -12   28.90    4.40
  -4  10 -12   24.90    4.20
  -4 -10  12   23.00    3.40
  -4  10 -12   16.20    3.30
   4  10  12   25.90    3.20
   4  10  12   21.60    3.20
  -4  10 -12   20.30    3.30
   4 -10 -12   26.00    3.70
  -4 -10  12   29.70    4.20
   5  10 -12   18.30    3.10
  -5 -10 -12   19.20    3.90
  -5  10  12   17.90    3.20
   5  10 -12   25.90    4.00
   5 -10  12   26.60    3.70
   5  10 -12   33.40    5.00
  -5  10 -12   17.70    3.50
   5  10  12   21.00    3.20
   5  10  12   25.70    3.60
  -5  10 -12   17.20    3.30
  -5  10 -12   30.90    4.70
  -5 -10  12   19.70    3.70
   5 -10 -12   26.10    3.70
   6  10 -12   13.60    3.10
  -6  10  12   13.60    2.90
  -6 -10 -12   12.10    3.10
   6  10 -12   21.30    4.60
   6 -10  12   18.70    3.50
   6  10  12   16.20    3.40
   6 -10 -12   15.70    3.20
   6  10  12   12.20    2.80
  -6  10 -12   12.70    3.10
  -6  10 -12   16.90    4.00
  -6  10 -12   21.70    3.70
  -6 -10  12   11.40    3.20
   7  10 -12   18.20    3.50
  -7 -10 -12   16.10    3.80
  -7  10  12   19.00    3.50
   7 -10  12   20.30    4.10
   7 -10 -12   20.60    4.10
   7  10  12   17.50    4.30
  -7  10 -12   19.60    4.90
   7  10  12   19.40    3.30
  -7 -10  12   14.80    3.70
  -7  10 -12   20.60    4.00
  -7  10 -12   22.30    4.20
   0  11 -12    0.90    1.50
   0  11  12   -1.40    0.70
   0  11 -12   -2.60    1.80
   0  11 -12   -1.00    1.60
   0 -11  12    2.00    1.60
   0  11  12   -0.60    1.50
   0 -11 -12    1.10    1.60
   1 -11  12   10.40    2.50
   1  11 -12   15.80    3.20
   1  11 -12   11.70    3.00
  -1 -11 -12    7.90    2.20
  -1  11  12   11.90    1.40
  -1 -11 -12   12.50    3.00
  -1 -11  12   11.80    2.50
   1  11  12   11.40    1.60
  -1  11 -12   13.70    3.00
  -1  11 -12    7.30    2.60
  -1 -11  12   10.50    2.80
   1 -11 -12   11.20    2.40
  -1  11 -12    8.90    2.40
  -2 -11 -12    7.20    2.30
   2  11 -12    7.60    2.80
  -2  11  12    3.30    1.00
  -2 -11 -12    4.30    2.20
   2 -11  12    3.40    1.70
   2  11 -12    1.50    1.90
  -2 -11  12    7.20    2.40
  -2  11 -12   10.60    2.70
   2  11  12    4.60    1.40
  -2 -11  12    6.60    2.20
  -2  11 -12    4.50    2.40
   2 -11 -12    8.60    2.30
  -2  11 -12    5.70    2.40
   3 -11  12   20.20    3.40
  -3  11  12   27.00    3.70
   3  11 -12   19.80    3.70
   3  11 -12   19.10    3.80
  -3 -11 -12   25.60    4.10
  -3  11 -12   20.00    3.70
  -3  11 -12   19.10    3.50
   3  11  12   18.30    2.50
  -3 -11  12   22.40    3.80
  -3 -11  12   24.50    3.50
  -3  11 -12   17.30    3.30
   3 -11 -12   16.60    3.20
   4  11 -12    4.20    2.50
  -4  11  12    5.50    2.00
   4  11 -12    9.20    3.30
   4 -11  12    9.10    2.40
  -4 -11 -12    8.50    3.00
  -4  11 -12    4.20    2.50
   4  11  12    4.40    1.70
  -4 -11  12    4.90    2.10
   4  11  12    2.70    3.70
  -4 -11  12    7.10    2.50
  -4  11 -12    3.80    2.70
  -4  11 -12    2.70    2.10
   4 -11 -12   13.00    3.00
   5  11 -12   16.00    3.00
   5 -11  12   11.10    3.00
   5  11 -12   14.10    3.80
  -5  11  12   13.30    2.80
  -5 -11 -12   12.20    3.70
   5 -11 -12   12.60    3.00
   5  11  12   10.50    2.60
  -5  11 -12   14.20    3.90
   5  11  12   13.90    2.80
  -5  11 -12   15.60    3.50
  -5 -11  12   15.60    3.60
  -5  11 -12   14.30    3.40
   6 -11  12    2.90    2.80
   6  11 -12    0.90    1.80
  -6 -11 -12    3.80    2.50
  -6  11  12    1.20    1.80
   6  11 -12    2.80    3.50
  -6 -11  12   -1.20    2.50
  -6  11 -12    2.50    2.30
   6 -11 -12    1.50    2.30
  -6  11 -12   -0.70    3.20
   6  11  12    1.40    2.10
  -6  11 -12   -2.60    2.40
   6  11  12    1.50    2.80
   0  12 -12   44.50    5.50
   0  12 -12   48.80    5.50
   0  12  12   43.20    2.80
   0  12  12   40.70    5.10
   0 -12  12   41.50    4.80
   0  12 -12   41.50    5.40
   0 -12 -12   48.60    7.40
   1  12 -12    0.00    1.70
  -1  12  12    4.10    1.00
   1  12 -12    6.90    2.80
  -1 -12 -12    3.70    2.30
   1 -12  12    3.10    1.80
  -1  12 -12    3.10    2.20
  -1  12 -12    1.50    1.80
  -1  12 -12    1.60    2.40
   1  12  12    4.20    1.20
  -1 -12  12    5.50    2.10
   1 -12 -12    3.80    2.20
   2 -12  12   64.09    5.30
  -2 -12 -12   54.99    6.40
   2  12 -12   70.29    6.10
   2  12 -12   68.79    7.10
  -2  12 -12   55.19    6.40
  -2  12 -12   69.69    5.80
  -2  12 -12   67.99    6.80
  -2 -12  12   53.49    5.50
  -2 -12  12   61.19    5.50
   2  12  12   55.79    4.00
   2 -12 -12   71.99    5.70
   3  12 -12   20.70    4.10
   3 -12  12   20.60    3.20
  -3 -12 -12   19.50    4.10
  -3  12  12   15.00    2.80
   3  12 -12   16.30    3.40
  -3  12 -12    8.10    3.10
   3 -12 -12   14.80    3.50
  -3 -12  12   18.10    3.60
  -3  12 -12    9.90    3.30
  -3  12 -12   16.90    3.70
   3  12  12   14.00    2.30
  -3 -12  12   16.80    3.40
   4  12 -12   64.79    6.70
   4  12 -12   55.39    6.00
   4 -12  12   52.59    5.60
  -4 -12 -12   60.49    7.00
  -4  12  12   63.39    5.20
   4  12 -12   76.39    7.80
   4 -12 -12   59.89    6.30
  -4 -12  12   57.79    6.30
  -4  12 -12   51.99    6.40
  -4  12 -12   66.99    7.10
  -4  12 -12   64.59    7.00
   4  12  12   54.19    4.60
   5 -12  12    3.00    2.90
  -5 -12 -12    3.50    3.50
  -5  12  12    4.20    2.00
   5  12 -12    3.90    3.70
   5  12 -12    3.80    2.40
   5 -12 -12    8.90    3.10
   5  12  12    6.60    2.40
  -5 -12  12    3.80    3.30
  -5  12 -12    3.90    2.90
  -5  12 -12    2.10    3.30
  -5  12 -12    6.80    4.10
   0  13 -12   -3.10    1.80
   0  13 -12   -2.80    2.50
   0 -13  12    1.20    1.60
   0  13 -12    0.80    2.00
  -1 -13 -12   10.30    3.30
   1 -13  12    6.50    2.00
   1  13 -12    5.70    2.40
   1  13 -12    6.10    3.30
  -1 -13  12    7.70    2.30
  -1  13 -12    6.60    2.70
  -1  13 -12    2.00    2.10
  -1  13 -12    4.10    3.30
   1  13  12    4.10    1.30
   2  13 -12    7.60    3.50
   2  13 -12    2.50    2.40
  -2 -13 -12    5.50    3.10
   2 -13  12    2.80    2.00
  -2  13 -12    9.20    2.80
   2  13  12    3.20    1.30
  -2  13 -12    4.60    2.30
  -2  13 -12    3.80    3.30
  -2 -13  12    3.70    1.90
  -3 -13 -12    7.30    3.50
   3  13 -12    3.60    3.70
   3  13 -12   -4.00    2.00
   3 -13  12    3.20    2.20
  -3  13  12    2.50    2.30
  -3 -13  12   -2.20    2.20
  -3  13 -12    1.50    1.90
  -3  13 -12   -1.50    1.90
   3  13  12    1.90    1.60
  -3 -13  12    1.70    2.00
  -3  13 -12    2.90    3.50
   0   0  13    0.30    0.90
   0   0  13    0.00    0.40
   0   0  13   -0.20    0.70
   0   0 -13    0.30    0.50
   0   0 -13   -0.50    0.50
   1   0  13   -0.20    0.90
   1   0 -13    0.40    0.70
   1   0  13   -0.70    0.50
  -1   0  13   -0.50    0.60
   1   0 -13    0.50    0.60
  -1   0  13    2.20    1.00
  -1   0 -13    0.20    0.70
   1   0  13    0.20    0.50
  -1   0 -13   -0.10    0.60
  -2   0  13  164.88    8.30
  -2   0  13  145.89    8.10
   2   0  13  155.18    8.30
  -2   0 -13  156.38    7.60
   2   0  13  159.38    7.60
   2   0 -13  159.18    7.80
  -2   0 -13  149.99    7.90
   2   0 -13  161.28    8.10
   2   0  13  150.58    8.10
   3   0 -13    0.60    0.90
   3   0  13   -1.40    0.50
  -3   0  13   -0.20    0.80
   3   0  13   -1.30    1.00
   3   0 -13    0.70    0.70
  -3   0 -13   -0.10    0.60
   3   0  13    0.60    0.70
  -3   0 -13    0.80    0.70
  -4   0  13  115.69    6.10
  -4   0 -13  110.49    6.20
   4   0  13  115.99    6.30
   4   0 -13  105.89    6.30
  -4   0  13  110.69    6.60
   4   0  13  109.09    6.30
   4   0  13  109.29    7.00
  -5   0 -13    1.00    1.00
   5   0  13   -0.30    0.90
  -5   0  13    0.60    0.90
   5   0 -13   -0.10    1.00
   5   0  13   -1.90    1.70
  -5   0  13   -0.80    0.80
   5   0  13   -0.60    0.90
   6   0  13  152.38    8.70
   6   0 -13  163.48    9.20
  -6   0 -13  165.58    9.10
  -6   0  13  168.08    9.10
  -6   0  13  158.88    8.40
  -7   0  13    0.90    1.20
  -7   0 -13    0.00    1.10
  -7   0  13    0.90    1.10
   7   0  13   -1.40    1.00
   7   0 -13   -0.10    1.10
   8   0 -13   12.90    2.60
  -8   0  13   14.60    2.60
  -8   0 -13   11.40    2.50
   8   0  13    7.20    2.10
   9   0  13    1.60    1.80
   9   0 -13    1.00    1.50
  -9   0 -13    1.70    1.80
 -10   0 -13    1.10    2.40
  10   0  13   -2.30    1.30
  10   0 -13    0.30    1.70
   0   1  13   17.70    2.20
   0   1  13   15.70    1.20
   0  -1  13   18.80    2.30
   0   1 -13   20.90    2.70
   0   1  13   10.30    1.70
   0   1 -13   14.30    1.90
   0   1 -13   15.90    1.80
   0  -1  13   13.60    1.40
   0  -1  13   17.50    2.30
   0  -1 -13   18.40    2.00
   0  -1 -13   17.40    2.00
   1  -1  13  195.08    9.80
  -1  -1 -13  197.18    9.80
  -1  -1 -13  218.78    9.60
   1   1 -13  199.88    9.50
   1   1 -13  192.58    9.80
  -1   1  13  183.48    9.90
  -1   1  13  200.38    9.90
   1  -1  13  195.98    9.20
   1  -1  13  203.98   10.20
   1   1 -13  209.78   10.40
   1   1  13  201.08   10.00
  -1   1 -13  208.18   10.40
   1   1  13  208.08    9.10
  -1  -1  13  187.18    9.90
   1   1  13  203.38   10.00
  -1  -1  13  202.08    8.90
   1  -1 -13  194.28    9.70
   1  -1 -13  207.18    9.80
  -1   1 -13  196.38    9.60
  -1   1 -13  199.68    9.70
  -1  -1  13  193.58   10.10
   2   1 -13   34.00    2.80
   2  -1  13   32.10    2.80
   2  -1  13   33.40    2.50
  -2   1  13   31.10    3.20
   2  -1  13   41.00    3.30
  -2  -1 -13   35.70    2.30
  -2  -1 -13   34.90    2.80
   2   1 -13   36.40    2.50
  -2   1  13   32.90    2.90
   2  -1 -13   32.50    2.70
  -2  -1  13   34.70    3.50
   2   1  13   32.40    2.80
  -2   1 -13   30.50    2.50
   2   1  13   33.40    2.40
   2   1  13   34.70    3.40
   2  -1 -13   29.70    2.50
  -2   1 -13   31.90    2.50
  -2   1 -13   32.90    5.30
   3  -1  13   64.39    4.20
  -3   1  13   66.19    4.50
   3  -1  13   70.59    4.10
   3  -1  13   66.49    4.70
   3   1 -13   59.79    4.20
   3   1 -13   65.89    3.80
  -3  -1 -13   59.89    4.10
   3  -1 -13   68.59    4.30
  -3   1 -13   67.69    3.90
  -3   1 -13   61.09    4.00
  -3  -1  13   60.99    4.40
   3  -1 -13   62.19    4.00
   3   1  13   68.49    4.70
   3   1  13   60.49    3.90
   3   1  13   61.69    4.30
   4  -1  13    1.20    0.90
   4   1 -13    1.70    1.10
   4  -1  13    2.10    1.10
  -4  -1 -13    0.50    0.80
   4  -1  13    2.00    1.60
  -4   1  13    0.70    1.00
  -4  -1  13    1.00    1.00
   4   1  13    2.40    1.00
  -4   1 -13    1.70    1.00
  -4  -1  13    0.50    0.80
  -4   1 -13    1.40    1.00
   4  -1 -13    2.70    1.10
   4   1  13    1.80    1.10
   4  -1 -13    0.30    0.80
   4   1  13    2.60    1.60
   5  -1  13   86.39    5.50
  -5   1  13   87.89    5.70
  -5   1  13   92.69    5.40
  -5  -1 -13   79.09    5.20
   5  -1  13   93.89    5.60
   5   1 -13   82.59    5.30
  -5   1 -13   83.79    5.20
   5   1  13   87.49    6.30
  -5  -1  13   90.59    5.80
   5  -1 -13   78.19    5.30
   5   1  13   95.49    5.60
   5   1  13   89.29    5.70
  -5  -1  13   84.99    5.10
  -6   1  13    8.70    1.90
   6   1 -13    8.90    2.10
  -6   1  13   11.30    1.90
   6  -1  13    8.40    1.90
  -6  -1 -13    7.70    1.90
   6   1  13   11.40    2.10
   6   1  13   12.40    3.10
  -6  -1  13   13.60    2.00
  -6   1 -13    6.70    1.70
  -6  -1  13    5.40    1.70
   6   1  13    9.70    1.90
   6  -1 -13    5.70    1.80
  -7  -1 -13   22.10    3.20
  -7   1  13   30.60    3.60
   7  -1  13   22.70    3.20
   7   1 -13   24.30    3.40
  -7   1  13   26.20    3.10
   7   1  13   22.40    3.20
  -7   1 -13   23.20    3.20
  -7  -1  13   31.40    3.80
   7  -1 -13   16.80    2.80
   8   1 -13    1.00    1.20
  -8  -1 -13    2.50    1.70
   8  -1  13    0.90    1.40
  -8   1  13   -0.70    1.30
   8  -1 -13    0.50    1.50
  -8   1 -13   -0.40    1.50
   8   1  13    2.00    1.70
  -8  -1  13    0.50    1.40
   9  -1  13   24.80    3.90
  -9   1  13   27.30    3.70
   9   1 -13   25.60    3.80
  -9  -1 -13   18.20    3.50
   9  -1 -13   19.50    3.50
  -9   1 -13   24.80    3.70
   9   1  13   26.70    3.90
  10  -1  13    1.10    1.60
 -10  -1 -13    3.20    2.60
 -10   1  13    5.30    3.30
  10   1 -13    2.60    2.20
  10  -1 -13    5.50    2.30
  10   1  13    5.00    2.20
 -10   1 -13    2.70    1.80
   0  -2  13    0.00    1.00
   0   2 -13    0.00    0.50
   0   2 -13   -1.80    0.90
   0  -2  13   -0.40    0.50
   0  -2  13   -0.90    0.60
   0  -2 -13   -0.40    0.50
   0   2  13    0.50    0.80
   0   2  13    0.80    0.90
   0   2 -13   -0.70    0.60
   0  -2 -13   -0.20    0.50
  -1  -2 -13    1.30    0.70
  -1   2  13   -0.70    0.80
  -1   2  13    0.80    1.00
   1   2 -13   -0.70    0.60
   1   2 -13    1.00    0.70
   1   2 -13    1.90    1.30
   1  -2  13    2.60    1.10
   1  -2  13    1.00    0.70
   1  -2  13   -0.20    0.80
  -1  -2 -13    0.00    0.70
   1   2  13    1.20    0.60
   1   2  13    0.60    0.80
   1  -2 -13    1.00    0.70
   1  -2 -13    0.80    0.70
  -1  -2  13    0.40    0.50
  -1   2 -13    1.10    1.10
  -1  -2  13    1.10    0.90
  -1  -2  13    0.50    1.10
  -1   2 -13    0.30    0.60
  -1   2 -13    1.20    0.80
   1   2  13   -0.60    0.70
   2   2 -13   81.59    5.10
  -2  -2 -13   84.09    4.40
   2  -2  13   80.99    4.60
   2   2 -13   91.09    5.70
   2   2 -13   88.49    4.60
   2  -2  13   92.09    5.50
  -2   2  13   76.89    5.00
  -2  -2 -13   88.19    5.20
   2  -2  13   75.29    4.80
  -2   2  13   77.19    5.10
  -2  -2  13   90.99    5.30
  -2   2 -13   86.69    5.00
   2   2  13   84.49    5.20
   2   2  13   86.59    4.50
  -2   2 -13   83.79    4.80
   2  -2 -13   84.49    5.00
  -2   2 -13   94.49    5.70
   2  -2 -13   85.99    5.10
  -2  -2  13   85.39    4.30
   2   2  13   84.89    5.20
   3   2 -13   62.59    3.70
   3   2 -13   59.89    4.30
  -3   2  13   60.99    4.40
   3  -2  13   60.49    4.00
  -3  -2 -13   65.89    4.30
  -3   2  13   66.39    4.50
   3  -2  13   70.89    4.30
   3  -2  13   69.09    5.10
  -3   2 -13   68.39    4.10
  -3  -2  13   60.89    4.40
   3   2  13   66.89    4.00
  -3   2 -13   65.99    4.00
   3   2  13   59.39    4.50
  -3   2 -13   58.39    4.00
  -3   2 -13   67.69    5.10
   3  -2 -13   71.09    4.50
   3   2  13   70.69    4.60
   3  -2 -13   63.99    4.10
  -4  -2 -13  163.68    8.90
   4   2 -13  179.48    9.20
  -4   2  13  174.38    9.30
   4  -2  13  174.98    9.00
   4  -2  13  182.58    8.90
  -4  -2  13  172.58    9.40
  -4   2 -13  175.98    8.60
   4   2  13  169.38    9.50
   4  -2 -13  166.68    8.80
   4   2  13  175.18    8.90
  -4   2 -13  170.58    8.60
   4  -2 -13  172.98    9.10
  -4   2 -13  176.88    8.90
  -4  -2  13  184.98    8.50
   4   2  13  161.98    9.20
  -5   2  13   15.10    2.30
   5  -2  13   19.60    2.60
   5   2 -13   14.20    2.40
  -5   2  13   17.90    2.60
  -5  -2 -13   13.40    2.20
   5   2  13   19.30    3.20
   5   2  13   16.60    2.30
   5  -2 -13   12.90    2.20
   5   2  13   20.00    2.70
  -5  -2  13   16.40    2.50
  -5   2 -13   17.70    2.40
  -6  -2 -13   80.89    5.50
  -6   2  13   94.59    5.60
  -6   2  13   87.59    5.60
   6   2 -13   86.79    5.70
   6  -2  13   83.39    5.60
  -6  -2  13   72.19    5.60
   6   2  13   87.69    5.50
   6   2  13   69.79    5.40
   6  -2 -13   78.39    5.50
   6   2  13   95.49    6.50
  -6   2 -13   80.39    5.40
   7  -2  13   11.90    2.40
   7   2 -13    2.90    1.50
  -7   2  13    9.20    2.10
  -7  -2 -13    7.90    2.00
  -7  -2  13    8.90    2.20
   7   2  13    6.90    1.90
   7  -2 -13    7.70    1.90
  -7   2 -13    5.20    1.60
   8   2 -13    2.80    1.60
  -8  -2 -13    4.00    1.90
  -8   2  13    2.90    1.70
   8  -2  13    2.70    1.60
  -8  -2  13    2.20    1.80
   8  -2 -13    3.40    1.70
  -8   2 -13    5.00    1.80
   8   2  13    5.10    1.90
   9  -2  13    4.00    2.00
  -9   2  13    1.80    1.80
   9   2 -13    3.20    1.70
  -9  -2 -13    0.80    2.00
   9   2  13    2.50    1.80
   9  -2 -13    2.30    1.90
  -9   2 -13    4.30    1.90
 -10  -2 -13   19.50    3.90
  10  -2  13   11.90    3.00
 -10   2  13   13.50    3.40
  10   2  13   15.70    3.20
 -10   2 -13   14.40    3.10
  10  -2 -13   19.40    3.50
   0  -3  13   36.30    3.00
   0   3 -13   46.20    3.40
   0  -3 -13   43.30    3.30
   0   3  13   49.20    3.20
   0  -3  13   39.00    2.70
   0  -3  13   43.10    4.00
   0   3 -13   54.49    4.00
   0   3 -13   43.90    2.80
   0   3  13   40.70    3.30
   0  -3 -13   48.90    3.10
   1  -3  13  143.69    7.30
  -1  -3 -13  136.19    7.20
   1   3 -13  153.98    7.10
  -1   3  13  142.29    8.00
   1  -3  13  142.99    7.70
  -1   3  13  145.29    7.70
  -1  -3 -13  144.69    7.80
   1   3 -13  150.58    8.30
   1   3 -13  139.89    7.80
   1   3  13  137.49    7.60
  -1   3 -13  152.18    7.30
   1   3  13  151.88    8.00
  -1  -3  13  156.38    8.20
  -1  -3  13  148.19    7.20
  -1   3 -13  149.99    7.80
   1  -3 -13  150.58    7.80
   1  -3 -13  164.58    7.70
   1   3  13  173.08    7.10
  -1   3 -13  155.38    8.40
  -1  -3  13  131.79    7.70
   2   3 -13  138.59    7.60
   2  -3  13  135.69    6.80
  -2   3  13  134.69    7.20
   2   3 -13  125.89    7.10
  -2   3  13  126.19    6.90
  -2  -3 -13  116.89    6.90
   2  -3  13  124.69    6.60
   2   3  13  139.49    7.40
  -2   3 -13  131.79    7.60
   2   3  13  120.79    7.00
   2  -3 -13  136.29    7.00
  -2  -3  13  122.69    6.20
  -2   3 -13  129.39    7.00
  -2   3 -13  131.69    6.70
  -2  -3  13  116.89    7.00
   2   3  13  123.09    6.30
  -2   3 -13  134.79    6.90
   2  -3 -13  122.99    6.90
   3  -3  13  147.19    7.40
  -3   3  13  124.19    7.60
  -3   3  13  133.79    7.60
   3   3 -13  139.19    7.90
  -3  -3 -13  150.58    8.00
   3  -3  13  141.89    7.40
   3   3 -13  146.79    8.50
   3  -3 -13  147.79    7.90
   3  -3 -13  136.39    7.70
  -3  -3  13  138.69    7.80
   3   3  13  136.29    7.10
   3   3  13  149.39    7.90
  -3  -3  13  144.29    6.90
  -3   3 -13  143.79    7.60
  -3   3 -13  157.78    8.60
  -3   3 -13  149.59    7.70
  -3   3 -13  160.28    7.90
   3   3  13  146.79    7.80
   4   3 -13   23.30    3.00
   4  -3  13   24.50    2.80
  -4  -3 -13   27.30    3.00
  -4   3  13   28.40    3.20
  -4   3 -13   30.10    3.00
   4   3  13   29.50    3.50
  -4  -3  13   27.20    3.20
   4  -3 -13   26.80    2.90
   4   3  13   25.10    3.00
  -4   3 -13   24.30    2.70
   4  -3 -13   25.60    3.00
  -4   3 -13   27.90    3.80
   4   3  13   23.80    2.60
  -4   3 -13   29.70    2.80
  -5  -3 -13   14.20    2.30
  -5   3  13   12.80    2.20
  -5   3  13   18.70    2.70
   5   3 -13   13.00    2.30
  -5  -3 -13   12.60    2.30
   5  -3  13   12.50    2.10
   5   3  13   20.60    3.10
  -5   3 -13   13.80    2.20
  -5   3 -13   17.00    2.30
  -5   3 -13   25.30    2.70
  -5  -3  13   19.00    2.70
   5  -3 -13   15.80    2.50
   5   3  13   18.60    2.40
  -6  -3 -13    6.40    1.70
  -6  -3 -13   11.00    2.20
   6  -3  13   19.80    2.80
  -6   3  13   14.30    2.50
   6   3 -13    9.90    2.00
   6   3  13   11.60    2.80
   6   3  13   15.80    2.60
   6  -3 -13    7.80    2.10
  -6  -3  13   15.50    2.60
  -6   3 -13   11.30    2.00
  -7   3  13   19.10    2.90
  -7  -3 -13   17.30    2.90
   7  -3  13   18.60    3.10
   7   3 -13   20.90    3.10
  -7  -3 -13   16.70    2.80
   7  -3 -13   15.60    2.90
  -7  -3  13   18.20    3.00
  -7   3 -13   18.00    2.70
   7   3  13   22.80    3.20
   7   3  13   28.00    4.20
  -8   3  13    4.50    1.90
   8   3 -13    1.30    1.50
  -8  -3 -13    2.30    1.90
   8  -3  13   -0.20    1.40
   8  -3 -13    2.90    1.80
  -8   3 -13    2.90    1.80
  -8  -3  13    0.80    1.70
   8   3  13    2.10    1.50
  -9  -3 -13   28.40    4.00
   9   3 -13   31.00    4.10
   9  -3  13   20.00    3.40
  -9   3  13   27.10    3.90
   9   3  13   20.20    3.50
  -9  -3  13   21.10    3.80
   9  -3 -13   21.70    3.50
  -9   3 -13   17.70    3.30
 -10   3  13    1.60    2.50
  10  -3  13    0.10    1.60
 -10  -3 -13    1.20    2.50
  10  -3 -13   -1.00    1.60
  10   3  13    2.80    1.80
 -10   3 -13    2.40    1.80
   0  -4 -13    0.70    0.70
   0   4  13   -0.90    0.70
   0  -4  13   -0.50    0.50
   0  -4  13   -0.60    0.70
   0   4 -13   -0.50    1.00
   0  -4 -13    0.20    0.70
   0   4 -13   -0.30    0.90
   0   4  13   -0.70    0.80
  -1  -4 -13   30.60    2.20
   1   4 -13   26.70    3.00
   1  -4  13   29.70    2.60
  -1   4  13   24.60    2.90
  -1   4  13   30.60    2.60
   1   4 -13   30.20    3.50
   1  -4  13   24.30    2.40
  -1  -4 -13   26.60    2.90
  -1  -4  13   26.20    2.20
   1   4  13   29.70    3.30
   1  -4 -13   23.40    2.70
  -1   4 -13   30.00    2.30
   1   4  13   30.60    2.90
   1  -4 -13   32.10    2.50
  -1   4 -13   26.20    2.90
  -1  -4  13   29.30    3.10
  -1   4 -13   32.00    3.60
   2  -4  13  133.59    7.10
   2   4 -13  144.19    8.00
   2   4 -13  155.18    8.50
  -2  -4 -13  145.99    7.90
   2  -4  13  132.79    7.10
  -2   4  13  129.79    7.50
  -2   4  13  129.09    7.10
  -2   4 -13  134.39    7.60
  -2   4 -13  161.48    8.50
  -2  -4  13  144.89    7.70
   2   4  13  127.09    7.50
  -2  -4  13  143.79    6.90
   2   4  13  130.89    6.70
   2   4  13  142.19    7.30
   2  -4 -13  143.49    7.80
  -2   4 -13  152.78    7.40
  -2   4 -13  145.29    7.90
   2  -4 -13  134.89    7.60
  -3   4  13   76.19    5.00
  -3  -4 -13   74.99    5.00
   3   4 -13   66.79    4.90
   3   4 -13   85.19    5.70
   3  -4  13   81.99    4.60
  -3   4  13   74.29    4.80
   3  -4  13   77.39    4.70
  -3   4 -13   76.49    4.60
   3   4  13   71.79    5.10
  -3   4 -13   75.49    5.60
  -3  -4  13   74.49    4.30
   3  -4 -13   65.79    4.70
   3   4  13   71.29    4.40
  -3   4 -13   83.09    4.80
   3  -4 -13   73.09    4.80
   3   4  13   75.79    5.00
  -3  -4  13   58.19    4.70
  -3   4 -13   78.39    5.00
   4  -4  13   51.29    3.70
   4   4 -13   51.39    4.00
  -4  -4 -13   39.20    3.70
  -4   4  13   49.50    3.90
   4   4 -13   55.39    3.50
  -4  -4 -13   44.70    3.80
   4   4  13   45.10    3.50
  -4   4 -13   52.99    5.20
  -4   4 -13   53.69    3.80
   4  -4 -13   44.40    3.80
   4   4  13   51.89    4.10
  -4   4 -13   54.49    3.80
  -4   4 -13   54.69    3.90
  -4  -4  13   48.70    4.10
   4  -4 -13   45.30    3.60
  -5   4  13   88.39    5.50
  -5   4  13   87.59    5.50
   5   4 -13   88.39    5.90
  -5  -4 -13   87.49    5.80
  -5  -4 -13   79.89    5.80
   5  -4  13   82.09    5.40
   5   4  13   72.29    5.10
  -5   4 -13   83.49    5.50
  -5   4 -13  106.49   11.30
  -5   4 -13   96.99    5.70
  -5  -4  13   81.89    5.80
   5  -4 -13   92.69    6.00
  -5   4 -13   92.39    5.50
   5   4  13   84.39    6.00
  -6  -4 -13   33.40    4.00
  -6   4  13   36.10    3.90
   6  -4  13   25.60    3.40
   6   4 -13   31.70    3.60
  -6  -4 -13   26.00    3.30
  -6  -4  13   32.70    4.10
   6   4  13   36.90    4.60
   6   4  13   33.80    3.50
   6  -4 -13   30.90    3.70
  -6   4 -13   42.20    4.00
  -7   4  13   13.10    2.60
  -7  -4 -13   10.10    2.30
   7  -4  13   10.40    2.20
  -7  -4 -13   13.70    2.80
   7   4 -13   15.50    2.70
   7   4  13   14.00    2.50
   7   4  13   16.10    3.60
  -7  -4  13   12.80    2.80
   7  -4 -13   20.60    3.20
  -7   4 -13   13.90    2.60
  -8  -4 -13   13.60    2.80
   8   4 -13   16.80    3.00
  -8   4  13   22.40    3.40
   8  -4  13   19.40    3.20
   8   4  13   22.50    5.30
  -8   4 -13   21.10    3.40
   8  -4 -13   16.10    3.20
  -8  -4  13   19.70    3.40
   8   4  13   19.40    3.30
  -9  -4 -13    9.20    2.80
   9  -4  13    5.60    2.10
  -9   4  13   11.10    2.80
   9   4 -13   11.60    4.80
   9  -4 -13    3.40    2.20
  -9   4 -13    8.60    2.50
   9   4  13    7.20    2.40
  -9  -4  13   10.70    2.90
   0  -5 -13  101.99    6.20
   0   5 -13  110.29    6.50
   0  -5  13   96.49    5.80
   0  -5  13  102.49    5.60
   0  -5 -13  111.79    5.90
   0   5 -13  121.29    7.10
   0   5  13   93.39    6.10
   0   5  13  111.49    5.60
  -1  -5 -13   89.49    5.60
  -1   5  13   92.69    5.90
   1  -5  13  101.39    5.50
   1  -5  13   93.99    5.50
   1   5 -13   95.99    5.80
  -1   5  13   99.89    5.40
   1   5 -13   97.09    6.30
  -1  -5  13   87.69    5.20
  -1  -5  13   89.59    5.70
  -1   5 -13   90.59    5.70
   1  -5 -13   93.89    5.70
   1   5  13   98.89    5.50
   1  -5 -13   97.09    5.40
  -1   5 -13  106.69    6.40
  -1   5 -13   75.39    5.40
   1   5  13   97.29    6.00
   2   5 -13    1.50    1.70
   2  -5  13    2.00    1.10
   2  -5  13    4.00    1.30
   2   5 -13    4.80    1.40
  -2   5  13    3.10    1.00
  -2  -5 -13    2.00    1.10
  -2   5  13    2.20    1.20
   2  -5 -13    2.50    1.10
  -2   5 -13    4.30    1.40
  -2  -5  13    4.10    1.20
   2  -5 -13    3.50    1.30
   2   5  13    4.30    1.40
  -2  -5  13    3.50    1.40
  -2   5 -13    7.10    1.70
   2   5  13    5.10    1.60
   2   5  13    6.00    1.30
  -2   5 -13    3.20    1.60
   3   5 -13  128.89    7.40
  -3   5  13  116.59    7.10
   3   5 -13  132.19    7.90
  -3  -5 -13  120.19    7.10
   3  -5  13  126.59    7.00
  -3   5  13  116.59    6.80
  -3  -5 -13  115.49    7.30
   3   5  13  120.39    7.10
   3   5  13  128.89    6.70
  -3   5 -13  117.19    7.10
   3  -5 -13  117.59    7.00
  -3   5 -13  131.19    7.90
   3  -5 -13  122.19    7.10
  -3  -5  13  143.29    7.70
  -3   5 -13  127.89    6.70
  -3   5 -13  125.59    7.00
  -3  -5  13  126.69    6.70
   4   5 -13   23.10    3.10
   4   5 -13   32.30    3.00
  -4   5  13   24.60    3.00
  -4  -5 -13   24.00    3.20
   4   5 -13   32.50    4.20
  -4  -5 -13   25.10    3.20
   4  -5  13   23.40    2.90
  -4   5 -13   27.70    2.90
   4   5  13   25.90    3.30
  -4   5 -13   29.20    4.10
   4   5  13   26.10    2.70
   4  -5 -13   25.70    3.10
   4  -5 -13   31.50    3.30
  -4   5 -13   24.40    2.90
  -4   5 -13   22.10    2.90
  -4  -5  13   23.30    3.20
  -5  -5 -13   45.80    4.90
   5  -5  13   54.99    4.20
  -5   5  13   47.80    4.00
  -5  -5 -13   48.50    4.10
   5   5 -13   45.10    4.10
   5  -5 -13   37.90    4.20
  -5   5 -13   61.29    5.90
  -5   5 -13   51.89    3.90
  -5   5 -13   58.59    4.10
   5   5  13   46.60    3.80
  -5  -5  13   48.30    4.30
   5   5  13   47.70    4.80
  -5   5 -13   48.30    4.00
   6  -5  13   26.80    3.50
   6   5 -13   33.40    3.90
  -6  -5 -13   24.10    3.70
  -6  -5 -13   26.30    3.40
  -6   5  13   32.20    3.70
  -6   5 -13   27.30    3.30
  -6  -5  13   33.00    4.20
   6   5  13   24.40    3.90
   6   5  13   29.50    3.40
   6  -5 -13   30.90    3.80
  -6   5 -13   26.30    3.40
  -6   5 -13   26.10    3.30
  -7   5  13    0.90    1.60
   7   5 -13    2.60    1.60
   7  -5  13    3.80    1.70
  -7  -5 -13    0.90    1.70
  -7  -5 -13    2.80    1.70
   7  -5 -13    3.80    1.90
   7   5  13   -0.70    1.90
   7   5  13    4.70    1.70
  -7   5 -13    2.80    1.50
  -7  -5  13   -0.30    1.40
   8  -5  13    7.30    2.20
   8   5 -13    7.90    2.40
  -8  -5 -13    7.70    2.80
  -8   5  13    4.60    2.10
  -8  -5 -13    6.30    2.10
   8   5  13    9.80    3.30
   8  -5 -13    4.40    2.10
  -8   5 -13    4.80    2.00
   8   5  13    6.10    2.10
  -8  -5  13   10.60    2.80
  -9   5  13   12.70    3.20
  -9  -5 -13    9.70    3.00
   9  -5  13   10.40    3.00
   9  -5 -13   14.80    3.40
   9   5  13   16.60    3.30
  -9  -5  13   13.90    3.30
  -9   5 -13   11.70    2.90
   0   6 -13    1.40    1.40
   0  -6  13    1.00    0.90
   0  -6 -13    0.60    0.90
   0  -6  13    0.30    1.00
   0   6 -13    0.20    1.00
   0   6  13    0.40    1.10
   0  -6 -13    0.10    0.80
   0   6  13   -1.30    0.60
   1  -6  13    3.10    1.30
   1   6 -13    2.20    1.40
  -1   6  13    2.20    0.90
  -1  -6 -13    4.50    1.50
  -1   6  13    1.90    1.20
   1   6 -13    5.60    2.10
   1  -6  13    3.70    1.20
   1   6  13    4.70    1.50
  -1   6 -13    2.40    1.30
  -1  -6  13    2.60    1.10
   1  -6 -13    5.00    1.40
  -1  -6  13    1.70    1.30
  -1   6 -13    1.80    1.20
   1   6  13    2.50    1.00
   1  -6 -13    5.00    1.50
  -1   6 -13    9.60    2.10
  -2  -6 -13   47.80    3.80
  -2   6  13   44.80    3.70
   2  -6  13   43.10    3.40
  -2   6  13   42.90    3.10
   2   6 -13   44.30    3.90
  -2  -6 -13   47.60    4.20
   2   6 -13   51.99    5.00
   2  -6  13   48.50    3.60
  -2   6 -13   52.19    4.90
   2   6  13   42.30    3.30
   2   6  13   46.50    3.20
   2   6  13   43.50    3.90
   2  -6 -13   40.10    3.60
  -2  -6  13   47.10    3.40
  -2  -6  13   39.50    3.60
  -2   6 -13   42.70    3.80
  -2   6 -13   48.50    3.90
   2  -6 -13   51.69    3.70
  -3  -6 -13   24.00    3.30
   3   6 -13   38.70    4.40
   3  -6  13   25.40    3.00
  -3  -6 -13   37.60    3.80
   3   6 -13   27.20    3.40
  -3   6  13   28.20    2.90
  -3   6  13   26.40    3.10
   3   6  13   25.30    2.60
  -3   6 -13   35.10    3.70
  -3   6 -13   31.00    3.60
  -3   6 -13   30.20    3.90
  -3  -6  13   23.90    2.70
  -3  -6  13   28.70    3.40
   3  -6 -13   30.30    3.40
   3  -6 -13   28.80    3.30
   3   6  13   27.20    3.00
   4   6 -13   13.30    2.60
   4  -6  13    9.80    2.00
  -4   6  13   15.40    2.60
   4   6 -13   16.20    3.10
  -4  -6 -13   14.20    2.40
   4   6 -13   17.50    2.30
  -4  -6 -13   18.30    3.10
   4   6  13   16.90    2.30
  -4  -6  13   11.70    2.50
  -4   6 -13   12.70    2.90
  -4   6 -13   13.90    2.40
   4  -6 -13   12.30    2.30
   4  -6 -13   18.30    2.60
  -4   6 -13   15.90    2.40
   4   6  13   16.20    2.70
  -5   6  13   47.50    4.00
   5   6 -13   43.30    3.70
   5  -6  13   45.30    3.80
  -5  -6 -13   42.90    4.90
  -5  -6 -13   49.10    4.70
   5   6 -13   53.69    4.40
   5  -6 -13   52.19    4.40
   5   6  13   45.90    3.70
  -5   6 -13   42.70    5.10
  -5  -6  13   35.80    4.30
  -5   6 -13   46.30    4.40
  -5   6 -13   44.00    4.60
   5   6  13   46.40    4.70
  -5   6 -13   44.80    3.70
  -6  -6 -13   25.30    3.70
   6  -6  13   20.10    3.00
  -6  -6 -13   21.20    3.10
  -6   6  13   13.00    2.60
   6   6 -13   17.20    2.90
  -6  -6  13   21.20    3.40
  -6   6 -13   16.50    3.90
  -6   6 -13   18.30    3.00
   6   6  13   12.80    2.40
   6   6  13   16.20    3.20
  -6   6 -13   16.30    2.60
   6  -6 -13   22.60    3.40
  -6   6 -13   19.10    2.90
   7   6 -13   40.00    4.50
  -7   6  13   32.20    4.10
  -7  -6 -13   32.30    4.50
   7  -6  13   25.60    3.70
  -7  -6 -13   33.10    4.10
  -7   6 -13   37.20    4.10
   7  -6 -13   32.40    4.20
   7   6  13   39.40    5.10
  -7  -6  13   34.30    4.40
   7   6  13   31.80    3.90
   8  -6  13    9.40    2.40
  -8  -6 -13    8.60    2.50
  -8  -6 -13    9.20    2.90
  -8   6  13    4.10    2.30
   8  -6 -13    8.90    2.50
   8   6  13    8.70    2.40
  -8  -6  13    5.30    2.40
  -8   6 -13    8.10    2.60
   8   6  13    8.30    3.40
  -9   6  13   36.20    5.00
   9  -6  13   30.10    4.60
   9   6  13   36.60    4.90
  -9   6 -13   43.20    5.00
   9  -6 -13   32.00    4.60
  -9  -6  13   31.70    4.80
   0   7  13  150.18    8.80
   0   7  13  155.28    7.70
   0  -7  13  165.68    8.50
   0  -7  13  147.99    8.20
   0  -7 -13  156.48    8.50
   0   7 -13  150.98    8.70
   0   7 -13  148.79    8.90
   1   7 -13    4.50    1.80
   1  -7  13    6.90    1.70
   1  -7  13    6.10    1.50
   1   7 -13    7.20    2.00
  -1  -7 -13    6.70    1.70
  -1   7  13    9.20    1.90
  -1   7  13    6.10    1.20
  -1  -7  13    6.80    1.80
   1  -7 -13    9.40    1.80
   1  -7 -13    7.90    1.90
  -1  -7  13    6.00    1.50
  -1   7 -13    5.30    2.00
   1   7  13    6.40    1.30
  -1   7 -13    5.70    1.90
  -1   7 -13    6.70    1.90
   1   7  13    8.20    1.90
   2   7 -13   65.09    5.20
  -2  -7 -13   55.79    4.40
  -2   7  13   62.59    3.80
   2  -7  13   56.39    4.20
  -2   7  13   57.49    4.50
  -2  -7 -13   55.19    4.70
   2   7 -13   60.49    4.70
  -2  -7  13   59.39    4.20
   2  -7 -13   53.19    4.30
   2   7  13   64.49    4.10
  -2   7 -13   57.49    4.60
  -2  -7  13   52.79    4.50
   2  -7 -13   53.19    4.10
  -2   7 -13   61.49    4.60
  -2   7 -13   59.59    5.00
   3   7 -13    4.50    2.30
   3  -7  13    2.50    1.20
  -3   7  13    3.80    1.60
  -3   7  13    1.70    1.00
  -3  -7 -13    2.00    1.30
  -3  -7 -13    4.40    1.80
   3   7 -13    2.20    1.40
   3   7  13    3.30    1.40
  -3  -7  13    2.70    1.20
   3  -7 -13    1.10    1.20
  -3   7 -13    0.90    1.60
   3  -7 -13    5.00    1.70
  -3   7 -13    1.50    1.50
   3   7  13    1.50    1.20
  -3   7 -13    4.70    1.70
  -3  -7  13    4.90    1.80
  -4  -7 -13   35.70    4.00
   4  -7  13   31.90    3.60
  -4  -7 -13   30.80    4.20
   4   7 -13   36.30    4.70
   4   7 -13   38.70    4.10
   4   7  13   30.40    3.30
  -4  -7  13   39.70    3.70
   4  -7 -13   32.70    3.70
  -4   7 -13   38.40    4.20
  -4  -7  13   39.40    4.50
  -4   7 -13   31.50    3.80
   4  -7 -13   29.20    3.60
   4   7  13   33.80    3.70
  -4   7 -13   34.70    4.60
   5  -7  13    3.20    1.40
  -5  -7 -13    2.40    1.60
   5   7 -13    1.80    2.40
  -5  -7 -13    2.60    1.60
  -5   7  13    3.10    1.50
   5   7 -13    3.10    1.50
   5   7 -13    4.20    1.60
  -5   7 -13    1.50    1.30
   5  -7 -13    4.60    1.80
   5   7  13    2.60    1.90
  -5   7 -13    2.40    1.40
  -5  -7  13    1.90    1.60
   5   7  13    2.90    1.40
  -5   7 -13    1.80    2.10
   6  -7  13   60.39    4.90
  -6  -7 -13   61.39    5.40
   6   7 -13   59.19    4.90
  -6  -7 -13   52.79    5.20
  -6   7  13   57.19    5.50
   6   7  13   62.49    6.00
  -6  -7  13   50.99    5.70
  -6   7 -13   51.59    5.20
  -6   7 -13   53.59    6.30
   6   7  13   52.89    4.50
  -6   7 -13   56.69    4.80
   6  -7 -13   39.60    4.80
  -7   7  13    7.20    2.30
  -7  -7 -13    2.80    1.90
   7   7 -13    3.70    2.10
  -7  -7 -13    1.70    1.90
   7  -7  13    5.70    2.10
   7  -7 -13    1.50    1.70
  -7   7 -13   -0.40    1.80
  -7  -7  13    4.30    2.00
  -7   7 -13    3.00    2.20
  -7   7 -13    1.40    1.90
   7   7  13    6.40    2.60
   7   7  13   -0.30    1.40
  -8   7  13    1.40    1.80
  -8  -7 -13    3.90    2.30
   8  -7  13    4.40    2.50
  -8  -7 -13    6.40    2.50
   8   7  13    2.20    2.80
  -8  -7  13    3.70    2.00
   8  -7 -13    5.50    2.30
   8   7  13    2.30    1.80
  -8   7 -13    0.40    1.80
   0   8 -13    0.10    1.10
   0   8  13    1.10    0.80
   0  -8  13   -0.50    0.80
   0   8 -13    3.10    2.00
   0   8 -13   -0.50    1.10
   0   8  13    0.10    0.90
   0  -8  13   -1.20    0.90
   0  -8 -13    1.00    1.10
   1  -8  13   38.00    3.70
  -1   8  13   35.70    4.00
  -1   8  13   36.60    2.70
   1   8 -13   45.20    4.90
  -1  -8 -13   44.60    3.60
   1   8 -13   36.70    4.10
   1   8  13   35.20    2.80
   1  -8 -13   42.00    3.50
   1  -8 -13   35.10    3.90
  -1   8 -13   32.20    4.00
  -1   8 -13   37.60    4.30
  -1  -8  13   41.00    4.10
  -1   8 -13   34.00    3.90
  -1  -8  13   35.20    3.60
   2   8 -13   12.50    2.60
  -2   8  13   11.10    1.60
  -2   8  13   10.70    2.30
   2  -8  13   14.80    2.40
  -2  -8 -13   11.80    2.60
   2   8 -13   14.60    3.00
  -2  -8 -13   14.90    2.50
  -2   8 -13    9.90    2.60
  -2  -8  13   12.00    2.10
  -2   8 -13   15.10    2.70
   2  -8 -13   10.70    2.20
  -2  -8  13   10.20    2.30
  -2   8 -13   16.20    2.60
   2   8  13   12.20    1.90
   2  -8 -13   10.20    2.10
   3   8 -13    9.70    2.30
  -3  -8 -13    9.20    2.40
   3  -8  13    9.20    2.00
   3   8 -13   12.70    3.00
  -3  -8 -13   10.40    2.20
   3   8  13   11.80    2.10
  -3   8 -13    9.50    2.40
  -3  -8  13   11.80    2.10
  -3   8 -13   12.60    2.60
   3   8  13   14.40    2.20
   3  -8 -13   11.90    2.40
  -3  -8  13   14.70    2.70
   3  -8 -13   13.40    2.50
  -3   8 -13   15.00    3.00
  -4  -8 -13   33.20    4.50
  -4   8  13   39.90    4.10
   4   8 -13   40.80    5.00
   4  -8  13   27.70    3.60
  -4  -8 -13   42.00    4.40
   4   8 -13   35.10    4.30
  -4   8 -13   38.00    4.40
  -4  -8  13   40.60    4.50
  -4  -8  13   40.10    4.00
   4   8  13   40.60    3.90
  -4   8 -13   43.10    4.70
  -4   8 -13   42.00    5.20
   4  -8 -13   48.90    4.70
   4   8  13   33.10    3.70
   5   8 -13   22.00    3.00
   5  -8  13   20.10    3.20
  -5   8  13   16.70    2.90
   5   8 -13   21.50    3.30
  -5  -8 -13   19.20    3.10
  -5  -8 -13   16.10    3.10
   5   8 -13   28.90    4.70
   5   8  13   17.30    3.00
  -5  -8  13   15.60    3.10
  -5   8 -13   24.50    4.20
   5   8  13   21.30    3.00
  -5   8 -13   27.50    3.80
  -5   8 -13   17.80    3.30
   5  -8 -13   20.10    3.30
  -6  -8 -13   -0.20    1.40
  -6  -8 -13    1.10    1.70
  -6   8  13    1.00    1.50
   6  -8  13   -1.20    1.20
   6   8 -13   -0.40    1.50
   6   8 -13    0.40    1.50
   6   8  13   -0.70    1.70
   6  -8 -13    3.20    1.90
  -6  -8  13   -0.30    1.50
  -6   8 -13    2.70    1.90
  -6   8 -13    0.30    1.70
   6   8  13   -0.10    1.30
  -6   8 -13    0.50    2.10
   7  -8  13   61.29    5.80
  -7  -8 -13   58.09    5.70
  -7  -8 -13   59.09    6.60
  -7   8  13   56.69    5.60
  -7   8 -13   61.19   11.30
   7  -8 -13   56.29    6.10
  -7   8 -13   53.49    5.60
  -7   8 -13   52.39    5.60
  -7  -8  13   47.60    5.60
   7   8  13   53.49    5.40
   7   8  13   50.29    5.90
  -8  -8 -13    7.00    2.70
  -8  -8 -13    6.70    3.10
   8  -8  13    6.70    2.80
  -8   8  13    8.30    2.60
   8  -8 -13   15.10    3.80
   8   8  13    7.50    2.60
  -8  -8  13   12.20    3.10
   8   8  13    9.30    3.90
   0  -9  13   -0.90    1.30
   0   9 -13    2.90    1.50
   0  -9  13    0.50    1.10
   0   9  13    0.50    1.20
   0   9  13    0.60    0.70
   0   9 -13    3.00    2.10
   0   9 -13   -0.30    1.10
   0  -9 -13    0.80    1.30
  -1  -9 -13   33.20    3.60
  -1   9  13   32.80    2.40
   1   9 -13   28.90    4.00
  -1  -9 -13   19.30    3.20
  -1   9  13   18.50    3.10
   1  -9  13   34.00    3.70
   1   9 -13   23.00    3.30
   1   9  13   29.40    2.50
  -1  -9  13   27.60    3.40
  -1   9 -13   18.00    3.00
  -1  -9  13   28.90    3.40
   1  -9 -13   27.00    3.30
  -1   9 -13   24.10    3.60
  -1   9 -13   27.80    3.90
  -2  -9 -13   13.20    3.00
  -2  -9 -13   11.90    2.50
   2   9 -13   10.00    2.60
   2  -9  13   12.40    2.30
  -2   9  13   14.90    2.60
   2   9 -13   12.00    3.00
  -2   9  13   14.80    1.80
   2  -9 -13   15.60    2.60
  -2  -9  13   12.10    2.60
   2   9  13   14.50    2.00
  -2   9 -13   17.60    3.30
   2  -9 -13   11.10    2.30
  -2   9 -13   14.20    2.80
  -2   9 -13   15.30    2.90
  -2  -9  13   11.20    2.30
   3   9 -13    1.00    1.90
  -3  -9 -13    7.80    2.40
   3  -9  13    3.50    1.60
   3   9 -13    0.10    1.40
  -3  -9 -13    2.90    1.80
   3  -9 -13    4.40    1.70
  -3  -9  13    2.90    1.50
   3  -9 -13   -0.60    1.20
  -3   9 -13    1.50    1.50
  -3   9 -13    0.50    1.80
  -3  -9  13    1.10    1.50
   3   9  13    3.90    1.30
  -3   9 -13    3.90    1.80
  -4  -9 -13    4.30    2.40
  -4   9  13    3.10    1.60
  -4  -9 -13    9.50    2.40
   4   9 -13   13.20    3.20
   4   9 -13    8.80    2.40
   4  -9  13    9.20    2.20
   4  -9 -13    4.20    2.10
  -4   9 -13    9.80    2.80
  -4  -9  13   11.00    2.30
   4   9  13    2.90    1.70
  -4   9 -13   12.20    3.20
  -4  -9  13    5.80    2.20
   4   9  13    5.50    1.90
  -4   9 -13   10.40    2.70
  -5  -9 -13   15.50    3.00
   5   9 -13   15.10    3.70
  -5   9  13   17.40    3.00
   5  -9  13   13.90    2.70
   5   9 -13   22.50    3.30
   5   9 -13   19.80    3.50
  -5  -9 -13   14.30    3.10
  -5  -9  13   10.70    2.70
  -5   9 -13    9.20    2.60
  -5   9 -13   14.90    3.00
   5  -9 -13   16.80    3.10
   5   9  13   18.30    3.00
  -5   9 -13   20.50    4.20
   5   9  13   16.80    3.20
   6   9 -13   19.90    3.60
   6  -9  13   21.40    3.50
   6   9 -13   23.60    3.50
  -6   9  13   14.10    2.80
  -6  -9 -13   18.30    3.50
  -6  -9 -13   18.60    3.40
   6   9  13   23.10    3.40
  -6   9 -13   15.30    3.20
   6   9  13   15.50    3.40
  -6  -9  13   19.90    3.70
   6  -9 -13   19.10    3.50
  -6   9 -13   27.40    4.60
  -6   9 -13   17.00    3.40
  -7  -9 -13    0.40    1.70
  -7   9  13    0.90    1.30
   7  -9  13    3.40    2.30
  -7   9 -13    2.80    3.50
   7   9  13    1.20    2.70
   7  -9 -13   -1.80    1.90
  -7   9 -13    2.00    2.20
  -7  -9  13   -1.30    1.40
   7   9  13   -2.40    1.50
  -7   9 -13    3.30    2.40
   0 -10  13   -1.50    0.90
   0  10  13   -1.50    1.20
   0  10  13    0.70    0.80
   0  10 -13    0.80    1.80
   0 -10 -13   -2.20    1.00
   0  10 -13   -1.40    1.40
   0  10 -13    0.20    1.60
   1  10 -13    4.50    2.00
  -1  10  13    3.10    1.80
   1 -10  13    3.20    1.70
   1  10 -13    7.40    2.50
  -1  10  13    4.10    1.10
  -1 -10 -13    5.70    2.20
  -1 -10 -13    4.70    1.90
  -1  10 -13    3.60    1.80
   1 -10 -13    4.70    1.90
   1  10  13    5.20    1.30
  -1  10 -13    6.30    2.00
  -1 -10  13    8.30    2.10
  -1 -10  13    8.60    2.20
   1  10  13    2.10    1.70
  -1  10 -13    1.10    1.90
  -2  10  13   17.10    2.00
   2  10 -13   16.60    3.50
  -2 -10 -13   17.00    3.40
   2  10 -13   23.30    3.60
   2 -10  13   19.80    3.00
  -2 -10 -13   18.80    3.10
  -2 -10  13   17.30    2.90
   2  10  13   16.30    2.30
   2 -10 -13   23.20    3.40
  -2  10 -13   19.50    3.40
  -2  10 -13   23.30    3.80
   2 -10 -13   18.50    3.20
  -2 -10  13   24.70    3.50
  -2  10 -13   20.60    3.50
  -3 -10 -13    8.10    2.20
   3 -10  13    8.70    2.30
  -3 -10 -13    8.50    2.70
   3  10 -13   13.90    3.00
   3  10 -13    7.00    2.70
   3 -10 -13    7.50    2.40
  -3  10 -13    9.60    2.80
  -3 -10  13    6.60    2.20
  -3 -10  13    7.80    2.40
  -3  10 -13   11.20    3.00
   3  10  13   10.60    2.10
   3 -10 -13    5.60    2.10
  -3  10 -13    7.00    2.60
  -4 -10 -13    6.20    2.20
   4  10 -13   10.70    2.90
   4  10 -13    8.10    3.10
   4 -10  13    4.90    1.90
  -4 -10 -13    5.10    2.50
  -4  10  13    3.80    1.60
  -4  10 -13    0.50    2.20
  -4 -10  13    2.80    2.10
   4  10  13    5.20    1.90
  -4  10 -13    3.70    2.20
  -4 -10  13    4.20    1.90
   4 -10 -13    7.30    2.40
  -4  10 -13    6.40    2.30
   5 -10  13   28.50    3.90
   5  10 -13   23.80    4.80
   5  10 -13   34.30    4.20
  -5  10  13   22.50    3.50
   5  10 -13   35.00    4.60
  -5 -10 -13   31.90    4.80
   5  10  13   24.00    3.50
  -5 -10  13   24.20    4.20
  -5  10 -13   28.70    4.80
   5 -10 -13   36.00    4.70
  -5  10 -13   36.30    4.70
   5  10  13   35.00    4.20
  -5  10 -13   29.20    4.40
  -6 -10 -13    9.80    3.00
  -6  10  13   10.20    2.50
   6 -10  13   10.50    2.70
   6  10 -13    8.90    2.40
   6  10 -13   11.30    5.00
  -6 -10  13    6.10    3.10
  -6  10 -13    6.40    3.60
   6  10  13    7.60    3.00
  -6  10 -13   15.00    3.40
   6  10  13    8.00    2.50
   6 -10 -13   12.60    3.20
  -6  10 -13   11.10    3.10
   0  11  13   78.89    6.30
   0 -11  13   83.39    6.00
   0  11 -13   73.19    6.20
   0  11 -13   78.19    6.30
   0 -11 -13   95.09    6.30
   0  11 -13   86.29    7.00
   0  11  13   73.79    4.30
   1 -11  13   27.00    3.80
   1  11 -13   19.70    3.60
  -1 -11 -13   23.80    4.00
  -1 -11 -13   24.10    3.50
  -1  11  13   25.60    2.20
   1  11 -13   21.70    3.90
  -1  11 -13   19.60    3.60
   1  11  13   28.10    2.60
   1 -11 -13   29.10    3.80
  -1  11 -13   27.10    4.00
  -1  11 -13   24.70    4.20
   1  11  13   17.10    3.40
  -1 -11  13   30.60    4.00
   2 -11  13    1.80    1.80
   2  11 -13    0.30    2.30
  -2  11  13    3.30    1.00
  -2 -11 -13    2.00    2.00
   2  11 -13    4.50    2.20
  -2 -11 -13    5.30    2.30
  -2 -11  13    5.70    2.40
   2 -11 -13    2.60    1.90
  -2  11 -13    5.70    2.20
  -2 -11  13    1.00    1.50
   2  11  13    3.80    1.30
  -2  11 -13    3.80    2.00
  -2  11 -13    7.80    2.70
   3  11 -13   40.80    5.40
  -3  11  13   39.70    4.60
  -3 -11 -13   38.10    5.20
   3 -11  13   36.70    4.50
   3  11 -13   38.90    5.00
  -3 -11  13   33.60    4.30
  -3  11 -13   33.10    4.60
  -3 -11  13   35.50    4.70
  -3  11 -13   37.60    5.20
   3  11  13   37.50    3.70
   3 -11 -13   39.70    4.60
  -3  11 -13   25.20    4.20
   3 -11 -13   40.40    4.80
   4 -11  13    9.60    2.50
  -4 -11 -13   10.50    3.10
  -4  11  13   14.10    2.90
   4  11 -13   16.00    3.30
   4  11 -13   13.30    3.60
  -4 -11  13    9.00    2.90
  -4  11 -13   14.90    3.70
  -4 -11  13   10.80    2.50
   4  11  13   14.10    2.70
  -4  11 -13   13.70    3.40
   4 -11 -13   14.60    3.00
  -4  11 -13   12.40    3.20
  -5  11  13    2.50    1.80
   5  11 -13    3.10    2.00
   5  11 -13    0.40    2.60
   5  11 -13    3.90    3.20
   5 -11  13    2.00    1.70
  -5 -11 -13    2.30    2.80
   5  11  13    6.90    2.00
  -5  11 -13    4.00    2.70
   5 -11 -13    0.90    2.30
  -5  11 -13    3.50    2.40
  -5 -11  13    3.20    2.40
  -5  11 -13    4.80    3.10
   0  12  13    0.90    0.90
   0 -12  13    0.20    1.40
   0  12  13    0.60    1.90
   0  12 -13   -2.40    1.60
   0  12 -13    1.30    2.40
   0  12 -13   -1.50    1.70
   0 -12 -13    2.20    2.20
   1  12 -13    2.20    2.40
  -1  12  13    3.70    1.10
   1 -12  13    2.20    1.70
   1  12 -13    2.70    2.30
   1  12  13    2.00    1.20
  -1  12 -13    2.20    2.00
   1  12  13    3.40    2.20
  -1  12 -13    2.60    2.50
  -1 -12  13    2.30    2.00
  -1  12 -13    2.50    1.90
   1 -12 -13    4.40    2.10
   2 -12  13    5.30    2.30
  -2 -12 -13    3.40    2.30
   2  12 -13    3.10    2.80
   2  12 -13    5.20    2.40
  -2  12 -13    6.20    2.00
  -2  12 -13   11.50    3.50
  -2 -12  13    4.90    2.70
  -2  12 -13    7.40    2.30
  -2 -12  13   10.80    2.70
   2  12  13   10.80    1.90
   2 -12 -13    6.70    2.50
   3  12 -13   11.90    3.20
  -3  12  13    7.20    2.30
  -3 -12 -13    6.90    2.80
   3  12 -13   11.40    3.60
   3 -12  13   10.90    2.60
  -3 -12  13    3.30    2.10
  -3  12 -13    6.40    3.10
  -3  12 -13   12.60    3.60
  -3  12 -13    3.00    2.90
   3  12  13    7.20    1.90
  -3 -12  13    3.50    2.30
  -4 -12 -13   18.10    4.40
  -4  12  13   20.70    3.40
   4  12 -13   16.70    3.60
   4  12 -13   11.20    4.00
   4 -12  13   18.00    3.20
   4  12 -13    8.50    2.90
   4  12  13   11.50    2.40
   4 -12 -13   18.60    3.80
  -4  12 -13   11.10    3.40
  -4  12 -13   12.40    3.90
  -4 -12  13    8.90    3.30
  -4  12 -13   12.00    3.80
   0 -13  13    0.30    1.70
   0  13 -13   -1.30    1.60
   0  13 -13    0.80    2.80
   1 -13  13   57.39    6.10
   1  13 -13   55.19    6.40
   1  13 -13   56.09    6.90
  -1  13 -13   63.59    6.80
  -1  13 -13   66.29    7.10
  -1 -13  13   51.89    5.70
  -1  13 -13   70.69    7.60
   1  13  13   66.29    4.00
   2  13 -13   14.30    3.20
   2  13 -13   12.80    4.20
  -2 -13 -13    2.00    2.90
   2 -13  13   13.40    3.10
  -2  13 -13    4.20    2.40
  -2  13 -13   12.30    3.50
  -2 -13  13    8.00    2.70
   2  13  13    7.20    1.70
  -2  13 -13    9.00    3.80
   0   0  14  104.99    6.30
   0   0  14  113.39    6.50
   0   0  14  113.69    5.60
   0   0 -14  125.49    6.50
   0   0 -14  119.79    6.40
  -1   0  14   -0.10    0.70
  -1   0 -14    0.20    0.70
  -1   0 -14   -0.60    0.60
   1   0  14   -0.30    0.70
  -1   0  14   -1.00    0.90
   1   0  14   -0.30    0.90
   1   0 -14   -0.20    0.70
   1   0 -14    0.10    0.60
   1   0  14    0.30    0.50
  -2   0 -14   65.19    4.30
   2   0  14   69.59    3.90
  -2   0 -14   68.09    4.00
   2   0 -14   76.99    4.60
   2   0 -14   69.09    4.10
   2   0  14   71.79    4.80
  -2   0  14   64.69    4.50
   2   0  14   63.59    4.40
  -2   0  14   64.49    4.60
  -3   0 -14    1.90    0.90
   3   0  14   -1.10    1.10
   3   0 -14    1.30    0.80
   3   0 -14    0.30    0.90
  -3   0 -14    0.20    0.80
   3   0  14   -0.30    0.80
   3   0  14   -0.60    0.60
  -3   0  14   -0.10    0.70
  -4   0  14  134.89    6.90
   4   0  14  117.69    7.20
   4   0  14  129.49    7.00
  -4   0  14  131.09    7.50
   4   0  14  137.89    8.00
   4   0 -14  135.09    7.40
  -4   0 -14  127.39    7.20
   4   0 -14  130.09    6.90
   5   0  14   -2.10    0.90
   5   0  14   -0.40    0.80
  -5   0 -14    0.80    1.00
   5   0 -14   -0.30    1.00
  -5   0  14    0.40    1.00
   5   0  14    0.20    2.10
  -5   0  14   -0.50    0.70
  -6   0  14   13.80    2.20
  -6   0 -14   15.60    2.40
   6   0 -14   17.30    2.90
  -6   0  14    9.80    2.20
   6   0  14   13.60    2.20
   7   0  14    2.70    1.40
   7   0 -14   -2.40    1.00
  -7   0  14    0.50    1.20
  -7   0  14    0.20    1.20
  -7   0 -14   -2.10    1.00
  -8   0 -14   13.70    2.80
  -8   0  14   13.60    4.10
   8   0 -14   15.90    2.90
   8   0  14   15.70    2.90
   9   0 -14   -0.30    1.40
  -9   0 -14   -0.20    1.30
   9   0  14    2.60    1.80
  10   0 -14   14.40    3.20
 -10   0 -14   11.80    3.60
  10   0  14   21.30    3.90
   0   1  14    1.20    0.90
   0   1 -14    0.20    0.60
   0  -1 -14    0.70    0.70
   0  -1  14   -0.30    0.70
   0  -1 -14    0.60    0.60
   0   1  14   -1.00    0.70
   0  -1  14    0.30    0.40
   0   1 -14    0.30    0.70
   0  -1  14    1.00    1.00
   1  -1  14   22.20    2.50
   1   1 -14   24.20    2.30
   1   1 -14   19.00    2.30
   1  -1  14   19.50    1.90
  -1  -1 -14   24.90    2.00
  -1   1  14   18.70    2.40
  -1   1  14   22.10    2.70
  -1  -1 -14   19.20    2.30
   1  -1  14   19.00    2.60
   1   1  14   19.80    2.50
  -1  -1  14   20.80    2.60
  -1   1 -14   18.80    2.20
   1   1  14   18.30    1.70
  -1  -1  14   26.00    3.00
  -1   1 -14   24.70    2.50
   1   1  14   20.20    2.60
   1  -1 -14   24.30    2.50
   1  -1 -14   20.20    2.20
   2  -1  14   67.29    5.00
  -2   1  14   71.59    4.90
   2   1 -14   79.59    4.50
   2  -1  14   74.39    4.70
   2  -1  14   75.99    4.30
   2   1 -14   80.79    5.00
  -2   1  14   74.09    4.90
  -2  -1 -14   76.39    4.30
  -2  -1 -14   71.59    4.70
  -2   1 -14   80.39    4.60
   2  -1 -14   82.79    4.80
   2   1  14   76.69    5.00
  -2   1 -14   78.89    4.70
   2   1  14   75.79    4.20
  -2  -1  14   79.59    5.10
   2   1  14   78.09    4.90
   2  -1 -14   78.59    4.60
  -3  -1 -14   19.40    2.30
   3   1 -14   20.50    2.50
   3  -1  14   17.80    2.20
   3  -1  14   19.30    2.90
  -3   1  14   20.90    2.70
   3   1 -14   18.50    2.00
   3  -1  14   15.90    2.20
  -3  -1  14   16.40    2.50
   3  -1 -14   18.00    2.20
   3  -1 -14   21.40    2.50
   3   1  14   20.80    2.80
   3   1  14   23.50    2.30
  -3   1 -14   18.60    2.30
   3   1  14   20.90    2.60
  -3   1 -14   21.70    2.20
  -4  -1 -14   14.60    2.10
   4  -1  14   27.30    2.90
  -4   1  14   25.60    3.20
   4   1 -14   16.00    2.30
   4  -1  14   24.50    2.70
   4  -1  14   24.20    3.40
   4   1  14   31.60    3.70
   4   1  14   29.80    3.20
   4   1  14   22.30    2.60
   4  -1 -14   17.90    2.40
  -4  -1  14   18.80    2.70
   4  -1 -14   22.20    2.40
  -4  -1  14   24.90    2.50
  -4   1 -14   18.90    2.40
   5  -1  14  146.69    8.90
   5   1 -14  133.49    8.00
   5  -1  14  141.09    8.10
  -5  -1 -14  138.19    8.00
  -5   1  14  147.39    8.00
  -5   1  14  143.89    8.40
   5   1  14  154.08    8.20
   5  -1 -14  148.09    8.30
  -5  -1  14  157.28    7.80
  -5   1 -14  155.28    8.10
   5   1  14  152.58    9.00
   5   1  14  151.18    8.30
  -5  -1  14  152.78    8.60
  -6  -1 -14    6.20    1.70
  -6   1  14    3.20    1.30
  -6   1  14    4.30    1.60
   6   1 -14    7.20    1.90
   6  -1  14    3.00    1.30
   6   1  14    9.60    2.20
  -6  -1  14    7.50    1.80
   6   1  14    9.70    3.50
  -6  -1  14    6.90    1.90
  -6   1 -14    3.60    1.50
   6   1  14    5.70    1.70
   6  -1 -14    8.80    2.00
  -7   1  14   25.10    3.20
   7   1 -14   22.30    3.20
  -7   1  14   29.00    3.60
   7  -1  14   28.20    3.50
  -7  -1 -14   21.20    3.10
  -7   1 -14   22.10    3.20
   7   1  14   29.60    3.60
  -7  -1  14   20.30    3.10
   7  -1 -14   24.30    3.40
   8   1 -14    0.40    1.40
   8  -1  14    1.60    1.40
  -8  -1 -14    1.70    1.70
  -8   1  14    2.60    1.60
  -8   1 -14    0.70    1.40
  -8  -1  14    1.50    1.60
   8  -1 -14   -0.40    1.30
   8   1  14   -2.00    1.20
   9   1 -14    5.60    2.30
   9  -1  14    4.80    2.10
  -9  -1 -14    7.00    2.60
  -9   1  14    2.90    2.00
   9  -1 -14    5.60    2.20
  -9   1 -14    0.20    1.50
   9   1  14    4.60    2.20
  10  -1  14   -0.30    1.90
 -10  -1 -14    4.20    3.00
  10   1 -14   -1.00    1.90
  10  -1 -14    0.70    1.70
 -10   1 -14    3.80    2.10
  10   1  14    5.90    2.20
   0  -2 -14  261.37   12.80
   0   2  14  246.88   12.60
   0   2  14  237.58   12.30
   0   2 -14  255.97   12.80
   0  -2  14  258.47   11.70
   0   2 -14  280.07   12.40
   0  -2 -14  276.97   12.50
   0  -2  14  265.47   12.50
   0  -2  14  275.77   12.80
   1   2 -14   51.49    3.60
   1   2 -14   47.40    3.00
  -1   2  14   46.90    3.60
  -1  -2 -14   44.10    3.40
   1  -2  14   49.20    3.10
   1   2 -14   54.59    4.60
   1  -2  14   55.29    3.80
  -1  -2 -14   49.20    3.10
  -1   2  14   52.49    3.80
   1  -2  14   55.29    4.10
  -1   2 -14   53.29    4.10
  -1   2 -14   52.59    3.50
   1   2  14   53.09    3.80
  -1  -2  14   52.29    4.00
   1  -2 -14   48.50    3.40
   1   2  14   46.60    3.70
   1   2  14   50.49    3.00
   1  -2 -14   47.30    3.30
  -1   2 -14   47.20    3.20
  -1  -2  14   47.20    2.90
  -2  -2 -14  363.46   16.70
  -2   2  14  381.76   17.70
  -2   2  14  375.36   17.80
   2  -2  14  384.96   17.10
   2  -2  14  402.16   18.10
  -2  -2 -14  365.76   17.10
   2  -2  14  394.66   17.50
   2   2 -14  392.36   16.60
   2   2 -14  380.46   17.30
  -2   2 -14  369.96   19.60
  -2   2 -14  356.06   16.90
   2  -2 -14  348.97   17.00
  -2  -2  14  379.66   18.00
  -2   2 -14  375.86   16.90
   2   2  14  401.06   16.90
   2   2  14  358.36   17.70
  -2  -2  14  341.67   17.60
   2  -2 -14  376.76   17.10
   2   2  14  363.26   17.70
   3  -2  14   45.20    3.30
   3  -2  14   38.30    3.00
  -3  -2 -14   39.90    3.20
   3   2 -14   45.60    2.90
  -3   2  14   39.90    3.40
   3   2 -14   38.40    3.80
  -3   2  14   42.00    3.50
   3  -2 -14   38.10    3.10
  -3  -2  14   37.50    3.40
   3   2  14   39.40    2.90
   3  -2 -14   38.00    3.30
  -3   2 -14   45.60    3.30
   3   2  14   36.80    3.30
  -3   2 -14   44.50    3.20
   3   2  14   39.20    3.90
  -4   2  14  118.69    7.10
   4   2 -14  113.69    6.80
   4  -2  14  130.69    6.80
   4  -2  14  120.79    6.80
  -4  -2 -14  104.69    6.50
   4  -2 -14  104.59    6.60
  -4   2 -14  109.89    6.50
  -4   2 -14  121.59    6.40
   4   2  14  120.79    6.60
   4  -2 -14  117.19    6.50
   4   2  14  128.69    7.50
  -4  -2  14  107.29    7.00
  -4   2 -14  127.99    6.30
   4   2  14  122.29    7.20
  -5   2  14   26.00    3.20
   5   2 -14   21.90    3.00
  -5  -2 -14   16.50    2.50
  -5   2  14   21.80    2.80
   5  -2  14   15.30    2.30
   5  -2 -14   23.10    3.00
   5   2  14   22.40    3.30
  -5   2 -14   19.10    2.60
  -5  -2  14   17.90    2.80
   5   2  14   24.90    3.10
   5   2  14   25.00    2.80
  -6  -2 -14   42.10    4.20
   6   2 -14   31.70    3.70
  -6   2  14   38.80    3.60
   6  -2  14   43.60    4.20
  -6   2  14   40.40    3.90
  -6   2 -14   37.50    3.80
   6   2  14   38.60    3.90
   6   2  14   40.70    4.20
   6   2  14   47.70    5.20
  -6  -2  14   48.40    4.20
   6  -2 -14   37.40    4.10
   7   2 -14   13.80    2.70
  -7  -2 -14   11.40    2.50
   7  -2  14    7.90    2.10
  -7   2  14    7.00    2.00
  -7  -2  14    9.70    2.30
   7   2  14   12.00    2.40
   7  -2 -14   13.00    2.60
  -7   2 -14   13.20    2.50
   8   2 -14   18.00    3.10
  -8  -2 -14   16.80    3.00
  -8   2  14   13.20    2.80
   8  -2  14   18.10    3.10
  -8   2 -14   16.50    3.00
   8   2  14   17.20    3.00
  -8  -2  14   23.20    3.60
   8  -2 -14   15.40    3.10
  -9   2  14    0.10    1.80
   9  -2  14    2.30    1.80
  -9  -2 -14    3.30    2.00
   9   2 -14    3.20    2.10
   9  -2 -14    3.50    2.00
   9   2  14   -0.70    1.60
  -9   2 -14    3.50    2.10
  10   2 -14    1.30    2.40
  10  -2  14    5.50    2.40
 -10  -2 -14    5.90    3.10
 -10   2  14   10.00    3.20
 -10   2 -14    2.50    2.20
  10   2  14    4.30    2.00
  10  -2 -14    4.50    2.20
   0   3  14   -0.30    0.80
   0   3 -14    0.80    1.00
   0  -3 -14   -1.10    0.60
   0   3 -14   -1.30    1.30
   0   3  14   -2.20    0.70
   0  -3 -14   -0.60    0.70
   0  -3  14   -0.50    0.50
   0  -3  14   -0.10    0.90
   0   3 -14   -0.30    0.60
   1   3 -14   29.40    2.70
   1  -3  14   21.00    2.50
  -1  -3 -14   22.00    2.00
  -1   3  14   24.80    2.70
  -1  -3 -14   22.70    2.60
  -1   3  14   22.10    2.80
   1  -3  14   22.60    2.30
   1   3 -14   20.70    2.60
   1   3 -14   25.50    3.20
  -1   3 -14   27.20    3.30
  -1  -3  14   22.90    2.80
   1  -3 -14   23.00    2.60
   1   3  14   19.60    2.70
   1  -3 -14   23.80    2.60
  -1   3 -14   29.00    2.20
   1   3  14   17.70    2.40
  -1  -3  14   22.60    2.10
  -1   3 -14   30.90    3.00
  -2   3  14   44.30    3.60
  -2  -3 -14   31.80    3.30
   2   3 -14   38.20    3.20
   2  -3  14   40.40    3.20
   2  -3  14   39.10    2.90
  -2   3  14   39.60    3.30
   2   3 -14   50.29    4.10
   2  -3 -14   37.10    3.10
   2   3  14   46.10    3.60
  -2   3 -14   39.90    2.90
   2   3  14   41.10    3.50
  -2  -3  14   42.40    3.50
   2  -3 -14   41.20    3.20
  -2  -3  14   36.00    2.70
  -2   3 -14   42.70    3.20
  -2   3 -14   49.50    4.60
   2   3  14   39.00    2.80
  -3   3  14   79.99    5.10
  -3  -3 -14   80.39    5.20
   3   3 -14   74.49    5.10
   3  -3  14   73.59    4.70
   3  -3  14   76.69    4.70
  -3   3  14   73.09    4.90
  -3   3 -14   79.49    4.80
   3  -3 -14   76.39    4.90
  -3  -3  14   61.29    4.80
  -3   3 -14   80.39    5.00
   3   3  14   77.49    4.50
  -3   3 -14   82.79    5.90
   3   3  14   82.19    5.30
   3  -3 -14   80.79    5.10
   3   3  14   70.19    5.00
  -3   3 -14   82.69    4.90
  -4  -3 -14   14.50    2.40
  -4   3  14   13.60    2.40
   4   3 -14   17.50    2.60
   4  -3  14   19.70    2.50
  -4  -3  14   16.90    2.70
  -4   3 -14   18.30    2.30
  -4   3 -14   19.70    2.50
  -4   3 -14   16.40    2.30
   4  -3 -14   17.10    2.50
   4   3  14   16.20    2.20
   4   3  14   19.20    2.70
   4  -3 -14   18.10    2.40
   4   3  14   17.80    2.90
  -5  -3 -14   18.90    2.80
   5   3 -14   16.40    2.60
  -5   3  14   12.80    2.30
   5  -3  14   20.30    2.60
  -5   3  14   20.70    2.80
  -5   3 -14   21.30    3.60
  -5   3 -14   20.10    2.70
   5   3  14   19.90    3.30
   5   3  14   17.80    2.80
  -5   3 -14   23.20    3.20
   5   3  14   19.20    2.60
  -5  -3  14   20.00    2.90
   5  -3 -14   17.90    2.70
  -6   3  14   24.60    3.20
  -6   3  14   26.40    3.80
  -6  -3 -14   26.00    3.40
   6  -3  14   29.70    3.50
   6   3 -14   33.80    3.80
   6   3  14   29.30    3.40
   6   3  14   20.70    3.60
   6  -3 -14   28.30    3.60
  -6   3 -14   29.60    3.50
   6   3  14   23.00    3.30
  -6  -3  14   30.40    3.90
   7  -3  14   39.60    4.20
   7   3 -14   47.00    4.70
  -7  -3 -14   31.80    4.00
  -7   3  14   34.40    3.90
  -7   3 -14   35.40    4.10
   7   3  14   37.40    4.00
   7   3  14   32.40    4.00
   7   3  14   32.90    4.80
  -7  -3  14   33.60    4.30
   7  -3 -14   31.60    4.00
   8  -3  14    7.40    2.20
   8   3 -14    4.10    1.90
  -8   3  14    3.70    1.90
  -8  -3 -14    8.90    2.50
  -8  -3  14    5.40    2.20
   8  -3 -14    2.60    1.60
   8   3  14    2.80    1.70
  -8   3 -14    7.70    2.30
   9  -3  14   -0.10    1.50
   9   3 -14    1.50    1.70
  -9   3  14   -0.10    1.80
  -9  -3 -14    0.10    1.80
   9   3  14    0.40    1.60
  -9   3 -14   -1.10    1.50
   9  -3 -14   -0.10    1.50
  -9  -3  14   -0.60    2.00
   0  -4  14   70.09    4.70
   0  -4  14   72.69    4.40
   0   4 -14   73.09    5.00
   0   4  14   82.79    5.20
   0  -4 -14   82.29    4.60
   0   4 -14   88.49    5.80
   0   4  14   75.79    4.70
   0  -4 -14   79.89    5.00
  -1   4  14  600.04   27.60
   1   4 -14  597.04   28.90
  -1  -4 -14  707.23   28.80
  -1   4  14  622.84   27.10
   1  -4  14  623.74   27.20
   1   4 -14  684.53   29.60
   1  -4  14  613.04   26.80
  -1  -4 -14  605.94   28.80
  -1  -4  14  620.24   27.40
   1   4  14  593.24   27.10
   1  -4 -14  685.33   28.70
  -1  -4  14  617.24   26.70
  -1   4 -14  673.13   29.60
  -1   4 -14  661.63   28.50
   1   4  14  581.24   27.60
   1  -4 -14  636.84   28.90
  -1   4 -14  595.34   28.90
  -2   4  14   66.59    4.70
  -2  -4 -14   68.89    4.50
   2  -4  14   73.39    4.40
  -2   4  14   66.19    4.40
   2  -4  14   63.39    4.20
   2   4 -14   60.99    4.60
   2   4 -14   61.79    5.10
  -2  -4  14   63.59    4.60
   2   4  14   61.69    4.50
   2   4  14   63.49    4.80
  -2   4 -14   69.59    4.40
   2   4  14   72.19    4.00
  -2  -4  14   62.19    3.90
   2  -4 -14   63.59    4.30
  -2   4 -14   66.69    4.10
  -2   4 -14   71.79    4.60
  -2   4 -14   64.39    5.10
   2  -4 -14   62.29    4.40
   3   4 -14  282.87   15.20
   3  -4  14  326.97   14.50
   3   4 -14  334.17   16.10
  -3  -4 -14  301.47   15.10
  -3   4  14  296.17   14.70
   3  -4  14  306.67   14.60
  -3   4  14  318.67   15.10
  -3  -4  14  302.97   15.10
  -3   4 -14  317.87   15.10
   3   4  14  302.47   14.90
   3   4  14  295.87   15.20
  -3   4 -14  334.67   14.80
   3  -4 -14  320.27   15.10
   3  -4 -14  320.17   15.10
  -3   4 -14  304.07   14.90
  -3  -4  14  313.97   15.30
  -3   4 -14  328.37   16.00
   3   4  14  307.97   14.30
  -4   4  14   79.99    5.30
   4   4 -14   75.29    5.20
   4  -4  14   73.39    4.90
  -4  -4 -14   69.29    5.00
   4  -4 -14   66.09    4.90
  -4   4 -14   71.29    4.70
   4   4  14   69.09    5.20
  -4   4 -14   81.39    5.00
   4  -4 -14   68.19    4.80
   4   4  14   73.69    5.40
  -4   4 -14   75.29    4.80
  -4  -4  14   70.99    5.30
   4   4  14   79.79    4.80
  -4   4 -14   78.79    6.00
  -5   4  14  128.79    7.40
  -5   4  14  133.59    7.50
   5   4 -14  121.79    7.40
  -5  -4 -14  108.89    7.10
  -5  -4 -14  127.19    7.70
   5  -4  14  116.69    7.20
   5   4  14  118.19    6.90
   5  -4 -14   99.49    7.10
  -5  -4  14  122.29    7.60
  -5   4 -14  116.19    6.90
   5   4  14  125.89    7.90
  -5   4 -14  127.59    7.00
  -5   4 -14  141.49    7.30
  -6   4  14    1.70    1.20
  -6  -4 -14   -0.70    1.00
   6  -4  14   -0.20    1.10
  -6  -4 -14   -0.70    1.10
   6   4 -14   -0.20    1.10
   6   4  14   -0.80    1.70
  -6  -4  14    0.00    1.10
  -6   4 -14    0.80    1.20
   6   4  14    0.00    1.20
   6  -4 -14   -1.40    0.90
  -7   4  14   67.89    5.20
   7   4 -14   66.89    5.20
  -7  -4 -14   63.79    5.30
  -7  -4 -14   70.59    5.40
   7  -4  14   59.89    5.20
   7   4  14   69.79    5.30
   7  -4 -14   56.79    5.10
   7   4  14   65.99    6.70
  -7  -4  14   68.69    5.60
  -7   4 -14   67.89    5.10
   8   4 -14    4.70    2.10
   8  -4  14    8.30    2.30
  -8  -4 -14    4.10    1.90
  -8   4  14    8.20    2.30
  -8   4 -14    5.00    2.00
   8  -4 -14    6.80    2.30
  -8  -4  14    4.70    2.20
   8   4  14    3.80    2.00
  -9  -4 -14   -1.10    1.60
  -9   4  14   -0.10    1.70
   9  -4  14    4.00    1.80
   9   4 -14    0.20    1.90
   9   4  14    3.60    1.80
  -9  -4  14    0.10    1.80
  -9   4 -14    0.90    1.60
   9  -4 -14   -0.90    1.50
   0   5  14    0.40    0.90
   0   5 -14   -0.40    1.30
   0  -5 -14   -0.50    0.70
   0   5  14    0.20    0.80
   0  -5 -14    0.70    1.00
   0  -5  14   -0.10    0.80
   0  -5  14    1.00    1.10
   0   5 -14   -0.60    1.00
   1  -5  14   52.69    3.60
  -1   5  14   53.49    4.10
   1   5 -14   44.20    4.60
  -1   5  14   48.30    3.50
   1  -5  14   45.50    3.60
  -1  -5 -14   43.70    3.70
   1   5 -14   48.20    4.00
   1   5  14   43.00    3.40
  -1   5 -14   48.10    4.80
  -1   5 -14   55.39    4.10
  -1  -5  14   49.20    3.40
  -1  -5  14   52.79    3.90
   1  -5 -14   65.39    3.90
   1   5  14   48.30    4.10
   1  -5 -14   42.50    3.60
   2  -5  14   17.80    2.30
   2   5 -14   20.40    2.80
   2  -5  14   22.70    2.50
  -2   5  14   18.00    2.20
  -2  -5 -14   18.60    2.60
   2   5 -14   18.40    3.10
  -2   5  14   19.80    2.80
   2  -5 -14   19.10    2.50
  -2   5 -14   22.80    3.30
   2  -5 -14   13.60    2.20
  -2  -5  14   20.40    2.80
  -2  -5  14   20.80    2.30
  -2   5 -14   17.70    2.50
   2   5  14   17.50    2.80
   2   5  14   14.50    2.20
  -2   5 -14   21.00    2.70
  -3   5  14   25.30    3.10
  -3  -5 -14   31.70    3.60
   3   5 -14   31.20    3.70
  -3   5  14   29.40    3.10
   3   5 -14   34.90    4.20
   3  -5  14   24.50    2.80
  -3   5 -14   34.90    3.60
   3   5  14   29.20    2.80
  -3   5 -14   31.60    3.50
   3   5  14   32.30    3.60
  -3  -5  14   26.00    2.70
  -3   5 -14   28.70    3.80
   3  -5 -14   29.50    3.30
   3   5  14   23.50    3.00
  -3   5 -14   33.30    2.90
  -3  -5  14   24.20    3.30
   3  -5 -14   31.70    3.40
  -4  -5 -14   28.70    3.50
   4  -5  14   35.10    3.60
   4   5 -14   39.70    4.10
  -4   5  14   34.20    3.60
  -4  -5 -14   34.90    4.10
  -4   5 -14   39.20    3.30
  -4   5 -14   49.10    3.70
  -4   5 -14   36.00    3.70
  -4   5 -14   37.70    4.60
   4  -5 -14   34.30    3.90
   4   5  14   34.50    3.40
  -4  -5  14   31.00    3.70
   4  -5 -14   41.50    4.00
   4   5  14   35.50    3.90
  -5  -5 -14   50.49    4.60
   5   5 -14   56.89    4.60
   5  -5  14   53.29    4.30
  -5   5  14   50.89    4.20
  -5  -5 -14   53.89    4.40
  -5   5 -14   62.19    4.50
   5   5  14   59.39    4.20
   5  -5 -14   47.00    4.90
   5   5  14   46.30    4.80
  -5   5 -14   52.49    4.10
  -5   5 -14   52.09    4.30
  -5  -5  14   42.80    4.80
  -6  -5 -14   19.20    3.00
   6   5 -14   17.70    3.10
  -6  -5 -14   26.40    3.60
  -6   5  14   24.00    3.30
   6  -5  14   21.80    3.20
  -6   5 -14   21.70    3.00
   6   5  14   20.40    2.90
  -6   5 -14   24.20    3.20
   6  -5 -14   26.10    3.50
  -6  -5  14   21.50    3.30
  -6   5 -14   17.10    3.00
   6   5  14   20.90    3.60
   7  -5  14   24.50    3.40
  -7  -5 -14   24.40    3.50
  -7   5  14   19.90    3.20
   7   5 -14   22.10    3.30
  -7  -5 -14   21.50    3.40
   7   5  14   22.20    3.20
   7   5  14   19.40    4.00
  -7  -5  14   17.90    3.30
  -7   5 -14   20.60    3.20
   7  -5 -14   21.80    3.60
   8   5 -14   33.00    4.30
   8  -5  14   23.50    3.60
  -8  -5 -14   21.10    3.60
  -8  -5 -14   22.80    3.90
  -8   5  14   21.70    3.70
   8  -5 -14   22.40    3.70
  -8  -5  14   26.60    4.10
   8   5  14   26.30    3.70
  -8   5 -14   30.20    4.10
   8   5  14   29.80    5.00
   9  -5  14    1.70    1.50
  -9  -5 -14   -2.00    1.90
  -9   5  14    1.50    2.20
  -9   5 -14   -1.20    1.50
   9  -5 -14   -2.20    1.50
   9   5  14    3.60    2.00
  -9  -5  14    5.80    2.70
   0   6 -14  126.49    7.50
   0  -6 -14  107.99    6.50
   0  -6  14  107.29    6.30
   0  -6 -14  115.79    6.60
   0   6  14  103.79    6.60
   0  -6  14  106.09    6.10
   0   6  14  112.39    6.00
   0   6 -14   97.39    6.60
   1  -6  14  362.96   17.10
  -1  -6 -14  353.06   18.20
   1   6 -14  335.07   18.30
  -1   6  14  341.57   16.70
   1   6 -14  422.46   19.20
  -1   6  14  363.36   17.60
   1  -6  14  360.36   17.10
   1  -6 -14  400.96   18.00
  -1  -6  14  426.06   17.80
  -1   6 -14  419.76   19.10
   1  -6 -14  379.06   18.30
   1   6  14  352.66   16.80
  -1   6 -14  424.56   18.60
  -1  -6  14  373.06   17.00
  -1   6 -14  392.06   18.60
   1   6  14  355.66   17.80
   2   6 -14   14.00    2.40
  -2   6  14   14.70    2.50
  -2  -6 -14   13.80    2.30
  -2   6  14   15.50    2.00
   2  -6  14   22.30    3.00
   2  -6  14   14.40    2.10
   2   6 -14   22.60    3.30
  -2  -6  14   15.00    2.60
   2  -6 -14   16.00    2.40
   2  -6 -14   19.90    2.60
   2   6  14   16.80    2.70
   2   6  14   10.40    1.90
  -2  -6  14   14.50    2.10
  -2   6 -14   14.50    2.50
  -2   6 -14   16.10    2.40
  -2   6 -14   14.60    2.80
   3   6 -14  216.08   11.70
  -3   6  14  199.48   10.20
   3   6 -14  246.98   12.40
  -3  -6 -14  208.08   11.40
  -3   6  14  199.48   10.70
   3  -6  14  203.38   10.50
  -3  -6 -14  223.48   12.00
   3   6  14  202.28   10.50
  -3  -6  14  193.38   10.90
  -3   6 -14  224.18   11.40
   3  -6 -14  226.28   11.50
  -3   6 -14  225.28   11.60
  -3  -6  14  210.68   10.20
  -3   6 -14  220.88   12.10
   3   6  14  207.48   10.10
   3  -6 -14  205.58   11.30
  -4  -6 -14    9.60    2.10
   4   6 -14   17.90    3.60
   4   6 -14   12.50    2.50
   4  -6  14   10.40    2.00
  -4  -6 -14   15.60    2.80
  -4   6  14   15.90    2.60
   4   6 -14   12.80    2.10
  -4  -6  14   10.60    2.30
   4  -6 -14   13.30    2.30
  -4   6 -14   12.30    2.40
   4   6  14    8.30    2.20
  -4   6 -14    8.90    2.10
   4  -6 -14    9.90    2.30
   4   6  14   12.00    2.00
  -4   6 -14   13.30    3.10
   5   6 -14   90.29    6.40
  -5  -6 -14   99.99    6.90
   5  -6  14   94.79    6.30
  -5  -6 -14   99.29    6.50
  -5   6  14  101.89    6.50
   5   6  14   86.49    6.60
  -5   6 -14   93.09    6.20
  -5   6 -14   98.59    7.60
   5  -6 -14  106.09    6.60
   5   6  14   99.09    6.10
  -5   6 -14   89.39    6.00
  -5  -6  14  104.19    6.90
  -5   6 -14   93.59    6.40
  -6   6  14    8.70    2.30
  -6  -6 -14   11.10    2.60
  -6  -6 -14    9.90    2.50
   6  -6  14    7.60    2.00
   6   6 -14    8.00    2.20
   6  -6 -14    9.50    2.30
   6   6  14    9.20    2.20
  -6   6 -14   11.00    2.40
  -6   6 -14    5.40    2.00
   6   6  14    9.80    2.80
  -6   6 -14   10.70    2.40
  -6  -6  14    8.80    2.40
  -7   6  14   38.60    4.50
  -7  -6 -14   45.30    5.30
   7   6 -14   51.79    5.20
  -7  -6 -14   37.00    4.40
   7  -6  14   49.60    5.20
  -7   6 -14   46.70    4.90
   7   6  14   46.00    4.80
  -7  -6  14   47.20    5.50
   7   6  14   40.40    5.30
   7  -6 -14   35.60    4.60
   8   6 -14    2.20    2.10
  -8  -6 -14    0.80    1.90
  -8  -6 -14    1.10    1.90
  -8   6  14   -1.20    1.70
   8  -6  14    0.20    1.40
  -8  -6  14   -1.70    1.70
   8  -6 -14   -0.90    1.50
   8   6  14    0.40    1.50
  -8   6 -14    0.10    1.70
   8   6  14    0.20    2.60
  -9   6  14    4.10    3.00
   9  -6  14    1.60    1.90
  -9  -6 -14    0.30    2.30
  -9   6 -14   -0.60    1.80
   9   6  14    1.00    1.80
   9  -6 -14    0.40    1.70
  -9  -6  14   -0.10    1.90
   0   7 -14    0.10    1.10
   0  -7  14    0.30    1.10
   0   7  14    0.60    1.20
   0   7  14    0.60    0.70
   0  -7 -14    1.10    1.10
   0  -7  14   -0.50    0.80
   0   7 -14    2.90    1.80
  -1   7  14   13.60    2.40
  -1   7  14   15.60    2.00
  -1  -7 -14   11.00    2.30
   1   7 -14   18.60    3.30
   1   7 -14   11.70    2.40
   1  -7  14   12.20    2.10
   1  -7  14   17.50    2.40
   1   7  14   15.60    2.60
  -1  -7  14   13.60    2.40
  -1   7 -14   16.30    3.10
   1   7  14   14.30    2.00
   1  -7 -14   19.50    2.40
  -1   7 -14   20.30    3.00
   1  -7 -14   16.80    2.60
  -1  -7  14   18.80    2.40
  -1   7 -14   17.10    2.80
  -2   7  14  143.79    7.40
  -2  -7 -14  141.69    8.30
   2   7 -14  138.19    8.90
  -2   7  14  141.59    8.20
   2  -7  14  145.19    7.90
   2   7 -14  149.09    8.70
  -2   7 -14  146.89    8.60
   2  -7 -14  153.28    8.20
   2   7  14  120.79    8.20
  -2  -7  14  151.98    7.90
  -2   7 -14  154.18    8.50
   2   7  14  140.69    7.60
  -2  -7  14  134.99    8.20
   2  -7 -14  138.89    8.20
  -2   7 -14  147.19    9.00
  -3   7  14   12.70    2.00
  -3  -7 -14   16.50    2.90
   3   7 -14   14.00    3.00
  -3   7  14   14.30    2.50
   3  -7  14   17.30    2.50
   3   7 -14   18.80    3.10
  -3  -7 -14   13.70    2.60
  -3   7 -14   16.80    2.80
  -3  -7  14   13.90    2.50
   3  -7 -14   20.40    2.80
   3   7  14   15.20    2.30
  -3  -7  14   11.40    2.10
  -3   7 -14   18.50    3.40
  -3   7 -14   15.10    2.70
   3  -7 -14   15.20    2.60
  -4  -7 -14   16.50    2.80
   4  -7  14   16.10    2.60
   4   7 -14   23.50    4.00
   4   7 -14   21.10    3.20
  -4  -7 -14   18.30    3.00
  -4   7 -14   21.60    3.80
  -4  -7  14   19.80    2.60
   4  -7 -14   15.20    2.50
  -4   7 -14   12.50    2.60
  -4  -7  14   14.10    2.80
   4   7  14   15.70    2.40
   4  -7 -14   17.70    2.80
   4   7  14   12.90    2.60
  -4   7 -14   15.20    2.80
  -5  -7 -14   21.70    3.60
   5   7 -14   28.90    3.90
  -5  -7 -14   24.80    3.50
   5  -7  14   23.00    3.20
  -5   7  14   29.40    3.70
   5  -7 -14   29.90    3.70
  -5   7 -14   37.40    5.10
  -5   7 -14   29.90    4.00
   5   7  14   23.10    3.50
  -5  -7  14   28.50    4.00
  -5   7 -14   26.40    3.70
   5   7  14   24.90    3.20
   6  -7  14   86.79    6.10
  -6  -7 -14   76.79    6.50
  -6  -7 -14   79.69    6.00
  -6   7  14   78.49    6.00
   6   7 -14   64.39    5.70
  -6  -7  14   76.39    6.30
   6   7  14   77.19    6.50
   6   7  14   89.59    6.00
  -6   7 -14   82.99    6.00
   6  -7 -14   82.09    6.20
  -6   7 -14   85.39    6.10
  -6   7 -14   73.69    9.40
  -7  -7 -14    1.10    1.70
  -7   7  14    1.70    1.90
  -7  -7 -14   -0.50    1.70
   7   7 -14    2.30    1.80
   7  -7  14    2.30    1.70
   7   7  14    1.00    2.40
   7   7  14    0.50    1.50
   7  -7 -14    1.30    1.90
  -7  -7  14    2.40    1.80
  -8  -7 -14   55.49    5.80
  -8  -7 -14   45.40    5.80
   8  -7  14   46.50    5.20
  -8   7  14   40.70    5.10
   8   7  14   40.50    4.90
  -8   7 -14   48.60    5.40
   8  -7 -14   37.70    5.40
   8   7  14   50.29    6.30
  -8  -7  14   42.00    5.30
   0  -8  14   62.99    4.50
   0   8 -14   67.49    5.30
   0   8  14   61.69    4.90
   0   8  14   58.49    3.80
   0  -8  14   59.09    4.50
   0   8 -14   64.89    5.70
   0  -8 -14   70.99    5.10
  -1  -8 -14  125.59    7.70
   1  -8  14  124.89    7.30
   1   8 -14  118.49    8.00
  -1   8  14  134.19    7.80
  -1   8  14  110.89    6.40
   1   8 -14  133.99    8.40
  -1   8 -14  136.79    8.50
  -1   8 -14  132.79    8.00
  -1   8 -14  135.99    8.20
  -1  -8  14  125.39    7.20
   1   8  14  127.49    6.60
   1  -8 -14  131.49    7.80
  -1  -8  14  115.99    7.40
   1   8  14  125.49    7.90
   2  -8  14   56.79    4.40
  -2   8  14   53.69    3.70
  -2  -8 -14   61.09    4.70
   2   8 -14   60.19    5.00
   2   8 -14   64.39    6.10
  -2  -8 -14   56.29    4.90
  -2   8  14   61.79    4.80
  -2   8 -14   64.69    5.40
  -2   8 -14   55.39    4.70
  -2   8 -14   59.29    4.90
   2  -8 -14   50.59    4.40
   2   8  14   53.19    3.90
  -2  -8  14   61.89    4.40
  -2  -8  14   60.99    4.90
   2  -8 -14   57.59    4.60
   3  -8  14   40.20    4.20
  -3  -8 -14   49.40    4.20
   3   8 -14   50.79    5.10
  -3   8  14   52.29    7.50
  -3  -8 -14   40.20    4.80
  -3   8  14   51.39    3.70
   3   8 -14   54.69    5.80
   3   8  14   48.50    3.90
  -3   8 -14   54.59    4.50
   3  -8 -14   48.40    4.70
   3  -8 -14   52.09    4.40
  -3  -8  14   47.40    5.00
  -3   8 -14   55.59    5.70
  -3  -8  14   50.89    4.00
  -3   8 -14   44.90    4.80
   4   8 -14   25.20    4.10
  -4  -8 -14   15.10    3.10
  -4  -8 -14   30.50    3.70
   4   8 -14   25.80    3.70
   4  -8  14   25.00    3.40
   4   8  14   22.10    3.00
   4   8  14   18.10    3.00
  -4  -8  14   29.80    3.40
   4  -8 -14   23.00    3.30
  -4   8 -14   23.20    3.40
   4  -8 -14   26.70    3.50
  -4   8 -14   20.80    3.90
  -4   8 -14   22.90    3.40
  -4  -8  14   27.30    3.80
   5   8 -14   66.19    8.00
   5   8 -14   74.29    5.80
   5   8 -14   66.39    5.20
  -5   8  14   65.49    5.20
  -5  -8 -14   73.89    6.20
   5  -8  14   59.29    4.90
  -5  -8 -14   59.39    5.20
   5  -8 -14   76.49    5.90
  -5  -8  14   71.19    5.80
  -5   8 -14   68.29    5.50
  -5   8 -14   65.79    5.60
   5   8  14   66.29    4.90
   5   8  14   50.19    5.40
  -5   8 -14   76.59    7.40
  -6  -8 -14    9.50    2.60
  -6  -8 -14    4.60    2.20
   6   8 -14    9.80    2.50
  -6   8  14    7.20    2.30
   6  -8  14    7.40    2.20
   6   8  14    3.60    2.50
  -6   8 -14    9.70    2.60
  -6  -8  14    7.30    2.40
  -6   8 -14    5.30    3.30
   6  -8 -14    9.70    2.50
   6   8  14    3.00    1.90
  -6   8 -14    8.20    2.60
   7   8 -14   25.70    4.40
  -7  -8 -14   25.60    3.90
  -7  -8 -14   27.40    4.60
   7  -8  14   38.70    4.50
  -7   8  14   28.70    4.00
   7   8  14   24.10    4.40
   7  -8 -14   30.40    4.40
  -7   8 -14   20.40    3.70
  -7   8 -14   25.50    4.10
  -7  -8  14   25.70    4.10
   7   8  14   26.30    3.70
  -8   8  14    2.40    3.00
  -8  -8 -14    1.60    2.10
   8  -8  14    5.40    2.30
  -8  -8 -14    3.20    2.80
   8   8  14    4.70    2.30
   8  -8 -14    1.70    2.80
  -8  -8  14    7.70    2.80
   8   8  14    7.80    3.90
   0  -9  14    1.60    1.60
   0   9 -14    1.60    1.50
   0   9 -14   -1.90    1.60
   0   9  14    0.90    0.80
   0  -9 -14   -0.10    1.20
   0  -9  14   -1.10    0.90
   0   9  14   -1.30    1.20
   1   9 -14    3.20    2.10
  -1  -9 -14    0.80    1.40
   1  -9  14    1.30    1.20
  -1   9  14    0.30    1.40
  -1   9  14    2.20    1.00
   1   9 -14    0.90    1.50
  -1  -9  14    1.10    1.30
   1   9  14    0.90    0.90
   1  -9 -14    1.60    1.50
  -1   9 -14    0.10    1.50
  -1   9 -14    1.30    1.90
  -1   9 -14    2.20    1.50
  -1  -9  14    0.30    1.00
   1   9  14   -0.30    1.10
   2   9 -14    1.40    1.50
  -2  -9 -14    2.10    1.40
   2  -9  14    2.10    1.40
  -2   9  14   -1.10    1.30
  -2  -9 -14    1.80    1.60
   2   9 -14    1.00    2.10
  -2   9  14   -0.40    0.90
   2  -9 -14    2.60    1.60
  -2  -9  14   -1.00    1.10
  -2   9 -14   -1.50    1.30
  -2  -9  14    1.30    1.50
   2  -9 -14    2.10    1.40
   2   9  14    3.30    1.20
  -2   9 -14    2.40    2.00
  -2   9 -14    2.90    1.70
  -3  -9 -14   61.79    4.90
   3  -9  14   51.59    5.10
   3   9 -14   55.39    6.10
  -3  -9 -14   49.20    5.60
   3   9 -14   48.40    5.30
   3  -9 -14   59.09    4.70
  -3  -9  14   55.39    5.00
  -3   9 -14   47.40    5.20
   3  -9 -14   58.09    4.80
  -3  -9  14   55.89    4.40
  -3   9 -14   49.20    5.20
  -3   9 -14   54.69    5.80
   3   9  14   53.69    4.20
  -4  -9 -14    5.40    2.30
  -4   9  14    4.00    1.80
   4   9 -14    2.30    1.80
   4  -9  14    3.30    1.70
   4   9 -14    2.00    2.40
  -4  -9 -14    5.80    2.30
   4  -9 -14    8.20    2.30
  -4   9 -14    0.40    1.80
   4   9  14    2.30    1.60
  -4   9 -14    1.10    1.70
  -4   9 -14    3.60    2.50
  -4  -9  14    3.80    2.10
  -4  -9  14    1.60    1.40
  -5   9  14   49.20    5.20
   5  -9  14   47.60    5.10
   5   9 -14   58.29    6.00
  -5  -9 -14   51.99    6.20
   5   9 -14   56.69    6.70
   5   9 -14   55.99    5.30
  -5  -9 -14   51.29    5.20
  -5   9 -14   52.59    5.60
  -5   9 -14   52.39    5.70
   5   9  14   49.60    4.90
  -5  -9  14   53.59    5.70
   5   9  14   54.59    5.40
  -5   9 -14   48.50    6.00
   5  -9 -14   58.19    5.90
  -6  -9 -14    4.30    2.30
  -6   9  14    9.40    2.40
   6   9 -14   12.00    3.10
   6  -9  14    6.90    2.40
  -6  -9 -14   12.70    3.00
  -6  -9  14    3.30    2.40
   6   9  14    7.90    3.00
   6  -9 -14    8.50    2.60
  -6   9 -14    8.20    2.70
  -6   9 -14    8.00    2.60
   6   9  14   10.60    2.50
  -6   9 -14    3.40    3.00
   7  -9  14   58.89    6.20
  -7  -9 -14   69.49    7.50
  -7   9  14   68.19    5.80
  -7  -9 -14   80.89    7.30
   7  -9 -14   80.29    6.90
   7   9  14   68.09    5.70
  -7   9 -14   62.39    6.80
  -7  -9  14   66.59    7.20
   7   9  14   67.89    7.20
  -7   9 -14   61.39    6.60
   0  10  14   72.39    5.80
   0 -10 -14   73.99    5.60
   0  10  14   67.29    4.10
   0  10 -14   74.09    6.30
   0 -10  14   64.69    5.20
   0  10 -14   72.39    5.90
   1  10 -14   50.39    5.80
  -1 -10 -14   60.19    4.90
  -1  10  14   53.99    5.00
   1 -10  14   56.09    4.60
  -1  10  14   47.00    3.40
   1  10 -14   60.19    6.20
  -1 -10  14   49.50    5.00
  -1  10 -14   44.90    5.30
   1  10  14   51.79    3.60
  -1  10 -14   65.69    6.50
   1 -10 -14   49.70    5.00
   1  10  14   58.19    5.20
  -1 -10  14   55.69    4.70
  -1  10 -14   60.79    5.00
   2 -10  14   71.09    5.60
   2  10 -14   86.89    6.80
  -2 -10 -14   80.59    6.60
  -2 -10 -14   71.89    5.80
  -2  10  14   79.19    4.60
   2  10 -14   84.99    6.50
  -2 -10  14   71.09    5.80
  -2  10 -14   78.69    6.40
  -2  10 -14   82.59    6.90
   2 -10 -14   79.09    5.90
   2  10  14   76.49    4.90
  -2  10 -14   72.19    6.20
  -2 -10  14   80.39    5.80
   3 -10  14    8.70    2.30
  -3 -10 -14   10.10    2.90
  -3 -10 -14   19.10    3.20
   3  10 -14   13.20    3.00
   3  10 -14   19.80    4.10
  -3  10 -14   17.20    3.30
   3  10  14   13.80    2.40
  -3  10 -14   15.10    3.10
  -3  10 -14    9.30    3.00
   3 -10 -14   19.10    3.10
  -3 -10  14   12.70    2.70
   3 -10 -14   16.80    3.00
  -3 -10  14   12.20    2.80
   4 -10  14   36.40    4.30
   4  10 -14   44.00    5.70
  -4 -10 -14   35.00    5.20
  -4 -10 -14   38.50    4.60
  -4  10  14   32.30    4.10
   4  10 -14   45.30    5.30
  -4  10 -14   42.80    5.20
  -4  10 -14   45.50    5.70
  -4 -10  14   34.50    4.70
   4  10  14   36.40    4.10
  -4  10 -14   38.40    5.00
   4 -10 -14   32.00    4.30
  -4 -10  14   43.90    4.50
   5  10 -14   12.90    3.20
  -5 -10 -14   13.90    3.30
  -5 -10 -14    9.20    2.90
   5 -10  14    8.10    2.40
   5  10 -14   13.60    4.00
  -5  10  14    6.80    2.40
   5  10 -14   14.20    2.80
   5 -10 -14    8.30    2.70
   5  10  14   12.20    2.70
  -5  10 -14    8.70    3.10
  -5  10 -14    7.80    3.30
  -5 -10  14    9.70    3.10
  -5  10 -14   10.70    3.10
  -6 -10 -14   31.80    5.00
  -6  10  14   33.90    4.30
   6 -10  14   35.70    4.50
   6  10  14   28.60    4.10
  -6 -10  14   27.90    4.80
   6  10  14   27.60    4.60
  -6  10 -14   28.50    4.60
  -6  10 -14   37.50    5.10
  -6  10 -14   26.10    5.20
   6 -10 -14   36.00    5.00
   0  11 -14   -0.40    1.70
   0  11  14   -1.00    0.90
   0  11  14    0.90    1.90
   0 -11 -14   -1.00    1.50
   0  11 -14   -1.70    2.00
   0 -11  14    0.10    1.50
  -1  11  14   19.50    3.90
  -1 -11 -14   17.50    3.20
   1  11 -14    9.00    2.80
   1  11 -14   13.00    3.30
   1 -11  14   15.00    3.00
  -1  11  14   11.00    1.70
   1  11  14   12.80    1.90
   1 -11 -14   14.20    2.90
  -1  11 -14   16.70    3.60
  -1  11 -14   12.80    3.00
   1  11  14   14.90    3.00
  -1 -11  14   14.70    2.90
  -1  11 -14   11.20    2.60
   2  11 -14    1.50    1.90
  -2 -11 -14    2.90    2.00
  -2 -11 -14    4.20    2.30
   2 -11  14   -1.20    1.40
   2  11 -14    3.40    2.50
  -2  11  14    3.00    1.10
   2 -11 -14    0.20    1.70
  -2  11 -14    4.30    2.60
   2  11  14    2.90    1.40
  -2  11 -14    2.10    1.80
  -2 -11  14    1.40    1.70
  -2  11 -14    7.60    2.50
  -2 -11  14    1.00    1.90
   3  11 -14    7.90    3.40
   3 -11  14   10.40    2.50
  -3 -11 -14    9.90    3.10
   3  11 -14   11.40    2.90
  -3 -11 -14    9.80    2.80
   3 -11 -14   11.90    2.80
   3 -11 -14    6.70    2.80
  -3  11 -14    5.20    2.60
  -3 -11  14   11.10    2.60
  -3  11 -14   12.70    3.50
   3  11  14   13.30    2.30
  -3  11 -14    5.70    2.30
  -3 -11  14   10.30    2.80
  -4 -11 -14   33.60    5.00
   4  11 -14   28.70    4.40
  -4  11  14   30.50    4.10
   4  11 -14   24.20    4.60
   4 -11  14   31.70    4.30
  -4  11 -14   21.10    3.90
   4 -11 -14   26.20    4.10
  -4 -11  14   25.30    4.30
  -4  11 -14   32.60    5.10
   4  11  14   29.00    3.70
  -4 -11  14   33.20    4.10
  -4  11 -14   24.00    4.20
   5  11 -14   15.00    3.30
   5 -11  14    7.90    2.30
   5  11 -14   18.00    3.80
  -5  11  14    9.20    2.60
   5  11 -14   12.00    4.30
  -5 -11 -14   10.70    3.90
   5 -11 -14   16.00    3.50
   5  11  14   16.70    3.10
  -5  11 -14   13.80    4.10
  -5 -11  14    9.50    3.40
  -5  11 -14   13.80    3.60
   0  12 -14   41.10    5.70
   0  12  14   41.90    3.00
   0 -12  14   41.20    4.80
   0  12  14   34.00    4.90
   0 -12 -14   43.60    4.90
   0  12 -14   38.40    5.20
  -1  12  14    0.90    1.00
   1 -12  14   -1.20    1.30
   1  12 -14    3.20    2.70
   1  12 -14   -3.50    1.70
  -1 -12 -14   -1.40    2.10
   1  12  14    3.40    2.10
  -1 -12  14    1.10    1.50
   1 -12 -14   -0.70    1.80
   1  12  14   -0.20    1.10
  -1  12 -14   -1.30    1.70
  -1  12 -14   -0.90    2.70
  -1  12 -14   -1.00    1.70
   2  12 -14   14.70    3.90
   2  12 -14    7.20    2.70
  -2 -12 -14   18.10    3.90
   2 -12  14   17.40    3.30
  -2  12 -14   15.80    4.00
  -2 -12  14   14.60    3.10
  -2 -12  14   14.30    3.60
   2  12  14    8.60    2.80
   2 -12 -14   13.70    3.20
  -2  12 -14   16.30    3.50
  -2  12 -14   19.20    3.80
   2  12  14   15.90    2.30
   3  12 -14   14.10    3.40
   3  12 -14    7.90    3.50
  -3  12  14   10.60    2.60
   3 -12  14    8.30    2.40
  -3 -12 -14   12.50    3.80
  -3 -12  14    9.10    2.80
  -3  12 -14   11.30    3.30
   3  12  14   10.80    2.20
  -3  12 -14   13.10    3.70
  -3  12 -14   14.40    4.10
  -3 -12  14   11.70    3.00
   4 -12  14   36.00    4.70
   4  12 -14   38.80    4.90
  -4 -12 -14   26.70    5.40
   4  12 -14   35.10    5.20
   4  12 -14   31.10    5.60
  -4  12  14   30.60    4.30
   4 -12 -14   34.10    4.90
  -4 -12  14   28.10    4.70
   4  12  14   29.60    3.90
  -4  12 -14   28.50    5.40
  -4  12 -14   29.10    5.30
  -4  12 -14   29.70    5.10
   0 -13  14   -2.90    1.40
   0  13 -14    1.90    3.40
   0  13 -14   -1.50    1.80
   0  13  14    1.10    1.30
   1  13 -14    6.80    4.00
   1  13 -14    8.40    2.80
   1 -13  14    3.90    2.20
   1  13  14    8.70    3.10
  -1  13 -14    4.50    3.80
   1  13  14    4.90    1.50
  -1  13 -14    6.00    3.10
  -1  13 -14    1.40    2.30
  -1 -13  14   -0.10    1.80
   0   0  15    0.50    1.00
   0   0 -15    0.00    0.70
   0   0  15    0.60    1.00
   0   0 -15    1.00    0.70
  -1   0 -15    0.60    0.70
   1   0 -15    0.40    0.60
   1   0  15    0.70    0.90
  -1   0  15   -0.40    1.10
   1   0 -15   -0.40    0.70
  -1   0  15   -1.10    0.70
   1   0  15   -0.70    1.00
   1   0  15    0.00    0.60
  -1   0 -15   -0.10    0.70
  -2   0  15  231.08   11.50
  -2   0  15  218.88   11.30
  -2   0 -15  211.48   11.00
   2   0  15  214.88   11.10
   2   0  15  222.78   10.50
   2   0  15  229.78   11.60
  -2   0 -15  229.78   10.70
   2   0 -15  225.88   10.80
   2   0 -15  233.78   11.20
   3   0 -15    0.10    0.80
   3   0  15    0.30    1.30
  -3   0 -15    0.00    0.70
  -3   0  15    1.40    1.20
   3   0 -15    2.20    0.90
   3   0  15    0.70    0.90
   3   0  15    1.00    1.10
  -4   0  15  111.89    7.20
  -4   0 -15  124.69    7.20
   4   0 -15  134.29    7.00
   4   0 -15  127.89    7.40
   4   0  15  133.59    7.00
   4   0  15  121.89    7.70
   4   0  15  131.29    7.30
   5   0  15   -0.90    0.70
  -5   0  15   -0.30    0.90
  -5   0  15    0.40    1.00
   5   0  15    0.50    1.00
  -5   0 -15    0.70    0.90
   5   0 -15    1.00    1.10
   6   0 -15  102.89    6.60
  -6   0  15   92.69    6.60
   6   0  15  109.19    6.50
  -6   0  15  106.79    6.20
  -6   0 -15   93.59    6.30
  -7   0  15   -0.80    1.30
  -7   0 -15    0.30    1.20
   7   0  15    1.10    1.20
   7   0 -15    0.70    1.20
  -7   0  15   -0.60    1.10
   8   0 -15   44.60    4.90
   8   0  15   53.59    5.30
  -8   0 -15   45.40    4.90
   9   0 -15    0.70    1.50
   9   0  15   -1.80    1.60
  -9   0 -15   -1.50    1.40
 -10   0 -15   16.20    3.60
  10   0 -15   18.00    3.50
  10   0  15   25.30    4.10
   0  -1  15  377.76   17.30
   0   1 -15  386.36   17.20
   0   1 -15  370.16   17.40
   0  -1  15  382.46   17.50
   0   1  15  367.56   17.30
   0   1  15  340.87   17.20
   0  -1 -15  387.06   17.20
   0  -1 -15  369.46   17.30
   1  -1  15   64.39    4.70
  -1   1  15   61.59    4.50
  -1  -1 -15   66.99    3.80
   1  -1  15   65.09    4.50
   1   1 -15   61.69    3.80
   1   1 -15   51.69    3.90
  -1  -1 -15   52.99    3.90
  -1   1  15   65.59    4.60
   1  -1  15   66.29    3.80
  -1   1 -15   60.09    3.90
   1  -1 -15   56.49    3.90
  -1  -1  15   61.09    4.60
   1   1  15   72.99    4.70
  -1   1 -15   67.99    4.10
   1  -1 -15   64.59    4.00
  -1  -1  15   59.59    4.40
   1   1  15   75.89    4.80
   2   1 -15   38.70    3.20
   2   1 -15   38.80    2.80
   2  -1  15   38.80    2.90
   2  -1  15   38.70    3.30
  -2   1  15   40.30    4.00
  -2   1  15   43.30    3.60
  -2  -1 -15   42.20    2.90
  -2  -1 -15   38.50    3.20
   2  -1  15   46.70    4.30
  -2   1 -15   38.90    3.00
   2   1  15   41.70    3.50
   2  -1 -15   43.70    3.10
  -2  -1  15   32.80    3.60
   2   1  15   44.60    2.90
   2   1  15   41.80    4.10
   2  -1 -15   40.70    3.20
  -2   1 -15   37.90    3.00
  -2  -1  15   47.60    4.30
  -3   1  15   90.59    5.70
   3  -1  15   83.59    5.00
   3  -1  15   80.39    5.80
  -3  -1 -15   81.49    5.20
   3  -1  15   81.39    5.30
   3   1 -15   88.99    5.50
   3   1 -15   87.69    4.90
   3   1  15   83.69    4.90
  -3   1 -15   80.19    5.10
  -3   1 -15   88.59    4.90
   3   1  15   85.79    5.70
   3  -1 -15   88.19    5.10
   3   1  15   88.39    5.50
   3  -1 -15   76.39    5.20
  -3  -1  15   82.79    5.60
   4  -1  15   36.80    3.10
  -4   1  15   33.90    3.70
   4  -1  15   34.70    3.20
  -4  -1 -15   37.70    3.20
   4   1 -15   35.00    3.70
  -4  -1  15   39.10    4.10
  -4   1 -15   31.30    3.30
   4  -1 -15   31.90    3.40
   4   1  15   32.60    3.20
  -4  -1  15   36.80    2.90
   4   1  15   34.80    4.20
   4  -1 -15   30.40    3.10
   4   1  15   37.90    3.40
  -5  -1 -15    3.60    1.40
  -5   1  15    2.20    1.20
   5  -1  15    1.70    1.20
   5   1 -15    3.80    1.50
  -5   1  15    3.80    1.40
  -5   1 -15    4.10    1.40
   5   1  15    4.70    2.00
  -5  -1  15    2.90    1.50
   5   1  15    3.90    1.40
  -5  -1  15    2.40    1.30
   5   1  15    3.10    1.50
   5  -1 -15    3.30    1.60
  -6  -1 -15    0.60    1.00
   6  -1  15    1.60    1.20
  -6   1  15    1.70    1.20
   6   1 -15    1.60    1.30
  -6   1  15   -0.10    1.10
   6   1  15    3.50    1.50
  -6  -1  15    1.80    1.40
   6   1  15    1.50    1.30
   6  -1 -15   -0.60    1.00
  -6   1 -15   -0.40    1.00
   7   1 -15    4.80    1.80
   7  -1  15    7.30    1.90
  -7  -1 -15    4.40    1.80
  -7   1  15    3.80    1.60
  -7   1  15    5.30    1.90
   7   1  15    7.10    1.90
  -7  -1  15    3.50    1.70
   7  -1 -15    1.60    1.40
  -7   1 -15    4.00    1.60
  -8   1  15   -1.30    1.30
   8  -1  15    0.90    1.50
   8   1 -15    0.70    1.50
  -8  -1 -15    0.30    1.30
   8  -1 -15    0.50    1.60
  -8  -1  15    0.30    1.50
  -8   1 -15    1.20    1.40
   8   1  15   -0.30    1.40
  -9   1  15   18.50    5.30
   9  -1  15   25.70    3.90
   9   1 -15   28.30    4.10
  -9  -1 -15   19.20    3.50
  -9   1 -15   15.90    3.00
   9  -1 -15   15.70    3.20
   9   1  15   21.90    3.60
   0   2 -15    0.50    0.70
   0  -2  15   -0.60    0.80
   0  -2  15    1.60    1.40
   0  -2 -15    0.20    0.60
   0   2 -15   -0.40    0.80
   0  -2 -15    0.50    0.70
   0  -2  15   -0.20    0.60
   0   2  15   -0.30    0.90
   0   2  15   -0.40    0.70
  -1  -2 -15  246.38   11.10
  -1   2  15  225.58   11.50
   1   2 -15  241.08   11.10
   1  -2  15  232.28   11.50
   1   2 -15  231.28   11.70
  -1  -2 -15  233.18   11.60
  -1   2  15  231.98   11.80
   1  -2  15  233.58   10.80
   1   2  15  227.18   11.70
  -1  -2  15  218.48   11.60
  -1  -2  15  256.87   12.00
   1  -2 -15  227.98   11.40
   1  -2 -15  234.38   11.60
  -1   2 -15  242.78   11.60
   1   2  15  222.68   11.50
  -1   2 -15  245.78   11.30
  -2  -2 -15   35.50    3.10
   2  -2  15   37.10    3.20
  -2   2  15   33.70    3.50
   2   2 -15   36.80    3.10
  -2   2  15   37.50    3.40
   2   2 -15   34.80    2.60
   2  -2  15   36.10    2.80
   2  -2  15   36.70    4.10
  -2  -2  15   43.10    4.20
   2  -2 -15   34.40    3.00
   2   2  15   42.40    3.50
   2   2  15   35.50    2.70
  -2   2 -15   40.60    3.00
  -2  -2  15   38.50    3.40
   2  -2 -15   37.60    3.10
  -2   2 -15   42.50    3.20
   2   2  15   35.90    3.30
   3  -2  15   53.19    3.70
   3   2 -15   50.59    4.00
   3  -2  15   46.90    3.40
  -3  -2 -15   50.99    3.90
  -3   2  15   50.69    4.10
  -3   2  15   44.20    3.90
  -3   2 -15   51.69    3.70
   3   2  15   51.99    3.40
   3   2  15   53.69    4.20
  -3  -2  15   42.10    3.80
  -3   2 -15   55.29    3.70
   3  -2 -15   52.09    3.80
   3   2  15   44.40    3.80
   3  -2 -15   57.89    4.10
   4   2 -15   32.70    3.70
  -4  -2 -15   31.40    3.30
   4  -2  15   40.30    3.40
  -4   2  15   34.80    3.80
   4  -2  15   41.00    3.40
   4   2  15   45.50    4.60
   4  -2 -15   34.40    3.40
   4   2  15   43.00    3.70
  -4   2 -15   43.10    3.30
  -4  -2  15   42.50    3.70
  -4   2 -15   39.00    3.30
   4  -2 -15   40.00    3.50
   4   2  15   45.40    3.30
  -5   2  15   24.50    3.20
   5  -2  15   18.40    2.60
   5   2 -15   18.30    2.80
  -5  -2 -15   16.60    2.70
  -5   2  15   22.40    2.70
   5   2  15   24.00    3.50
   5   2  15   26.00    3.30
   5   2  15   16.70    2.40
   5  -2 -15   15.60    2.70
  -5  -2  15   22.80    3.20
  -5   2 -15   18.80    2.70
  -6   2  15   65.79    5.00
  -6   2  15   58.69    4.70
  -6  -2 -15   55.49    4.60
   6   2 -15   63.09    4.80
   6  -2  15   68.59    5.00
  -6   2 -15   64.79    4.70
   6   2  15   72.49    6.70
   6   2  15   71.89    4.90
   6  -2 -15   52.29    4.60
   6   2  15   63.49    5.00
  -6  -2  15   65.89    5.20
   7   2 -15   18.00    3.00
  -7   2  15   24.10    3.20
   7  -2  15   17.20    2.90
  -7  -2 -15   16.10    3.00
  -7   2 -15   15.40    2.60
   7  -2 -15   16.60    2.90
   7   2  15   20.90    3.10
  -7  -2  15   18.50    3.30
  -8   2  15   12.90    2.60
   8   2 -15    7.60    2.30
  -8  -2 -15    3.60    2.10
   8  -2  15    4.10    2.00
  -8  -2  15    7.10    2.40
   8  -2 -15    9.70    2.40
   8   2  15    6.10    2.10
  -8   2 -15    6.40    2.10
  -9   2  15    8.00    2.60
   9  -2  15   12.90    2.90
   9   2 -15    7.50    2.60
  -9  -2 -15   12.90    3.10
   9   2  15   15.50    3.10
  -9   2 -15    7.60    2.70
   9  -2 -15   12.10    2.90
   0   3  15   59.29    4.70
   0  -3 -15   76.99    4.40
   0  -3  15   64.99    4.50
   0   3 -15   73.09    4.20
   0  -3 -15   62.39    4.50
   0  -3  15   69.39    3.90
   0   3  15   71.19    4.60
   0   3 -15   71.59    4.70
   1  -3  15  142.39    7.10
   1  -3  15  128.99    7.40
  -1  -3 -15  139.09    8.00
   1   3 -15  141.19    8.10
  -1  -3 -15  149.69    7.40
  -1   3  15  131.19    7.70
  -1   3  15  151.58    7.70
  -1   3 -15  164.28    8.10
  -1   3 -15  140.69    7.50
   1  -3 -15  159.28    7.90
   1   3  15  136.19    7.60
   1   3  15  143.99    7.90
  -1  -3  15  140.59    6.90
   1  -3 -15  150.88    8.00
  -1  -3  15  126.59    7.60
  -1   3 -15  153.38    8.80
   2   3 -15   55.59    4.00
   2  -3  15   54.69    3.80
  -2   3  15   44.60    3.80
   2  -3  15   45.70    3.40
  -2   3  15   50.39    4.00
  -2  -3 -15   46.90    3.70
   2   3  15   54.29    4.10
  -2  -3  15   52.09    4.00
   2  -3 -15   48.00    3.60
  -2   3 -15   44.50    3.30
  -2   3 -15   51.09    3.70
   2   3  15   52.69    4.00
   2  -3 -15   47.00    3.60
   3  -3  15  205.18    9.70
   3   3 -15  187.48   10.10
  -3   3  15  176.58   10.00
   3  -3  15  179.28    9.50
  -3   3  15  179.88    9.90
  -3  -3 -15  192.88   10.10
   3   3  15  200.58    9.40
  -3   3 -15  202.08    9.90
   3  -3 -15  187.28   10.00
  -3   3 -15  198.28    9.70
   3   3  15  195.18   10.30
   3   3  15  186.68   10.20
   3  -3 -15  185.98    9.80
  -3  -3  15  185.68   10.10
   4   3 -15    5.90    1.70
   4  -3  15    2.80    1.20
  -4   3  15    4.70    1.60
  -4  -3 -15    4.60    1.50
  -4   3 -15    5.20    1.40
  -4  -3  15    3.50    1.40
  -4   3 -15    5.60    1.60
   4  -3 -15    4.50    1.50
  -4   3 -15    2.90    1.30
   4   3  15    5.40    1.70
   4  -3 -15    5.10    1.50
   4   3  15    4.20    1.60
   4   3  15    4.00    1.40
   5  -3  15   32.10    3.50
  -5   3  15   37.20    3.70
   5   3 -15   33.60    3.90
  -5   3  15   35.30    3.90
  -5  -3 -15   34.30    3.80
  -5   3 -15   36.90    3.70
   5   3  15   35.20    3.60
  -5  -3  15   34.10    4.00
   5   3  15   31.80    3.70
   5  -3 -15   42.10    4.40
   5   3  15   29.20    4.00
  -6   3  15    3.80    1.80
   6   3 -15    5.10    1.70
  -6   3  15    3.10    1.60
  -6  -3 -15    2.60    1.60
   6  -3  15    2.10    1.30
   6   3  15    3.70    1.40
   6  -3 -15    4.00    1.80
  -6   3 -15    3.20    1.30
   6   3  15    5.30    2.50
  -6  -3  15    2.30    1.60
   6   3  15    6.20    2.10
   7  -3  15   -0.10    1.50
  -7  -3 -15    0.10    1.40
   7   3 -15   -1.10    1.20
  -7   3  15   -0.40    1.40
   7  -3 -15   -0.40    1.30
   7   3  15   -0.50    1.20
   7   3  15   -0.10    1.60
  -7  -3  15   -0.80    1.30
   7   3  15    1.70    2.50
  -7   3 -15    0.40    1.40
  -8  -3 -15    3.30    1.80
  -8   3  15    1.80    1.70
   8  -3  15    0.90    1.50
   8   3 -15    3.70    1.90
   8   3  15   -1.00    1.50
  -8   3 -15   -1.50    1.60
  -8  -3  15    3.10    1.90
   8  -3 -15    0.20    1.60
  -9   3  15   10.80    2.90
  -9  -3 -15   10.60    2.80
   9   3 -15   16.20    3.30
   9  -3  15    9.20    2.70
   9   3  15    8.60    2.50
  -9   3 -15   12.30    3.20
  -9  -3  15   15.80    3.30
   9  -3 -15   18.50    3.50
   0  -4 -15    0.40    0.80
   0  -4  15    1.30    0.90
   0   4  15   -2.20    0.80
   0  -4  15    0.40    1.00
   0   4 -15   -1.90    1.40
   0   4  15    0.60    1.10
   0  -4 -15   -0.30    0.80
   0   4 -15   -1.30    1.00
   1   4 -15    2.20    1.70
  -1   4  15    0.20    1.00
   1   4 -15   -0.90    0.90
   1  -4  15    0.60    0.80
  -1   4  15    0.50    1.00
   1  -4  15    0.20    1.00
  -1  -4 -15    0.00    0.90
   1  -4 -15    0.00    0.80
   1   4  15   -0.20    1.00
  -1   4 -15    1.10    1.30
  -1  -4  15    0.20    0.70
  -1  -4  15   -2.40    0.80
   1  -4 -15    0.20    0.90
  -1   4 -15    0.50    1.50
   1   4  15    0.90    1.10
  -2   4  15   30.80    3.50
   2  -4  15   26.10    2.90
   2  -4  15   25.80    2.70
   2   4 -15   27.90    3.30
  -2  -4 -15   27.60    3.10
   2   4 -15   29.40    3.90
  -2   4  15   24.60    3.00
  -2   4 -15   26.40    3.70
  -2  -4  15   29.70    3.40
  -2   4 -15   29.10    2.70
   2   4  15   23.70    3.00
  -2  -4  15   27.70    2.60
   2   4  15   27.80    3.40
   2  -4 -15   22.70    2.80
  -2   4 -15   28.50    3.20
   2  -4 -15   33.60    2.90
   3   4 -15   65.19    5.00
   3  -4  15   76.99    4.80
  -3   4  15   66.19    5.00
  -3   4  15   68.89    4.80
   3  -4  15   67.49    4.60
  -3  -4 -15   74.59    5.10
   3   4  15   71.09    5.20
  -3   4 -15   75.09    5.00
  -3  -4  15   72.49    5.20
   3  -4 -15   63.99    4.70
   3   4  15   71.09    5.00
   3   4  15   72.39    4.40
   3  -4 -15   81.59    5.10
  -3   4 -15   73.69    5.90
  -3   4 -15   79.09    5.00
  -3   4 -15   77.79    4.70
  -4   4  15    6.60    1.90
   4   4 -15    5.70    1.80
   4  -4  15    4.80    1.50
  -4  -4 -15    9.30    2.00
  -4   4 -15    8.80    1.90
  -4   4 -15    7.30    1.70
   4  -4 -15    8.30    2.00
  -4  -4  15   12.00    2.40
   4  -4 -15   10.10    2.00
   4   4  15    9.60    2.20
  -4   4 -15    7.20    1.80
   4   4  15    7.10    2.30
   4   4  15   13.00    2.00
  -5   4  15    9.30    2.20
  -5  -4 -15   12.40    2.40
   5  -4  15    9.90    2.00
  -5   4  15   11.40    2.30
   5   4 -15    8.00    2.00
  -5  -4  15    7.20    1.90
  -5   4 -15   13.10    2.20
   5   4  15    8.00    1.90
   5   4  15    8.20    2.20
   5   4  15   10.00    2.60
  -5   4 -15   11.00    2.20
   5  -4 -15   12.40    2.30
  -5   4 -15    6.60    1.90
  -6   4  15    2.30    1.60
   6  -4  15    4.50    1.60
   6   4 -15    4.10    1.80
  -6  -4 -15    2.10    1.50
   6   4  15    5.20    2.10
  -6   4 -15    3.90    1.60
   6  -4 -15    4.00    1.90
  -6  -4  15    4.80    1.90
   6   4  15    5.90    1.80
   6   4  15   10.90    2.90
  -7   4  15   13.50    2.70
  -7  -4 -15   15.40    2.80
   7  -4  15   17.60    3.00
   7   4 -15   17.80    3.10
  -7   4 -15   12.60    2.60
  -7  -4  15   14.60    2.90
   7   4  15    8.70    2.60
   7   4  15   18.20    3.70
   7   4  15   15.00    2.80
   7  -4 -15   20.40    3.30
   8   4 -15   14.80    3.00
   8  -4  15   10.40    2.40
  -8  -4 -15   12.80    2.90
  -8   4  15   16.10    3.00
  -8  -4  15   12.30    3.10
   8   4  15   22.60    3.40
   8  -4 -15   12.70    3.00
  -8   4 -15    6.80    2.40
   9  -4  15   27.40    4.30
   9   4 -15   32.30    4.70
  -9  -4 -15   28.60    4.50
  -9   4  15   33.30    4.60
  -9  -4  15   33.50    4.80
   9   4  15   44.10    5.10
  -9   4 -15   34.40    4.60
   9  -4 -15   31.90    4.50
   0   5 -15    3.40    1.80
   0   5 -15    5.90    1.70
   0  -5 -15    5.70    1.70
   0  -5 -15    6.80    1.50
   0   5  15    6.10    1.60
   0   5  15    4.90    1.40
   0  -5  15    5.10    1.30
   0  -5  15    5.00    1.60
  -1   5  15  175.88    9.60
   1  -5  15  177.38    9.10
   1  -5  15  168.88    8.90
  -1  -5 -15  177.08    9.90
   1   5 -15  182.08   10.10
  -1   5  15  175.08    9.00
   1   5 -15  201.68   10.70
  -1   5 -15  204.78   10.70
   1   5  15  170.38    9.70
   1  -5 -15  192.08    9.60
  -1   5 -15  189.88   10.10
  -1  -5  15  179.58    9.50
   1   5  15  177.48    9.10
   1  -5 -15  182.28    9.90
  -1  -5  15  171.18    8.80
   2  -5  15   50.89    3.60
  -2   5  15   42.80    3.50
  -2   5  15   39.90    3.70
  -2  -5 -15   46.50    4.00
   2   5 -15   46.30    4.10
   2   5 -15   50.59    5.10
   2  -5  15   42.40    3.40
  -2   5 -15   51.69    5.20
   2  -5 -15   51.89    3.80
  -2  -5  15   45.10    3.20
  -2   5 -15   51.19    4.10
  -2  -5  15   40.00    3.80
  -2   5 -15   49.99    4.00
   2   5  15   41.20    3.90
   2   5  15   46.40    4.10
   2  -5 -15   44.60    3.70
  -3   5  15  113.49    6.80
   3  -5  15  100.39    6.20
   3   5 -15  116.59    7.00
  -3   5  15  108.19    6.30
  -3  -5 -15   94.19    6.60
  -3  -5  15  104.99    6.80
   3  -5 -15  108.59    6.70
  -3   5 -15  113.79    6.80
   3  -5 -15  102.29    6.50
   3   5  15  101.29    6.50
   3   5  15   98.79    6.80
   3   5  15  113.09    6.70
  -3   5 -15  114.99    7.50
  -3   5 -15  126.09    6.80
   4  -5  15   19.60    2.80
  -4  -5 -15   15.90    2.60
   4   5 -15   15.00    2.70
  -4   5  15   23.50    3.10
  -4   5 -15   17.30    2.50
   4   5  15   28.90    3.50
  -4   5 -15   26.50    4.60
  -4   5 -15   22.10    2.90
   4   5  15   16.10    3.00
   4  -5 -15   17.70    2.80
  -4   5 -15   14.00    2.40
  -4  -5  15   19.60    3.00
   4  -5 -15   20.80    2.80
   4   5  15   20.60    2.50
   5  -5  15   17.30    2.80
   5   5 -15   15.90    2.80
  -5  -5 -15   19.20    3.20
  -5  -5 -15   19.50    2.90
  -5   5  15   17.70    2.90
  -5   5 -15   16.60    2.70
   5   5  15   18.90    3.30
  -5   5 -15   17.80    2.60
   5   5  15   20.40    2.80
   5  -5 -15   21.60    3.10
   5   5  15   17.30    3.10
  -5  -5  15   19.00    3.00
  -5   5 -15   16.50    2.70
   6   5 -15   11.10    2.50
  -6  -5 -15    8.10    2.40
   6  -5  15   13.70    2.60
  -6  -5 -15   10.40    2.40
  -6   5  15    9.70    2.30
   6  -5 -15   11.00    2.60
   6   5  15    9.40    2.80
   6   5  15    7.30    1.90
  -6  -5  15    9.00    2.40
  -6   5 -15   11.90    2.30
  -7  -5 -15    7.30    2.30
  -7   5  15    4.00    1.80
  -7  -5 -15    2.10    1.70
   7   5 -15    4.90    2.10
   7  -5  15    1.70    1.70
   7  -5 -15    1.60    1.70
   7   5  15    6.40    2.10
  -7   5 -15    5.90    1.90
  -7  -5  15    1.70    1.90
   7   5  15   -1.80    2.00
  -8  -5 -15    8.50    3.00
  -8  -5 -15    8.90    2.70
   8   5 -15   12.90    2.80
   8  -5  15   10.60    2.60
  -8   5  15    8.30    2.60
   8  -5 -15    7.50    2.50
   8   5  15   10.50    2.60
  -8   5 -15    8.00    2.50
   8   5  15    9.10    3.70
  -8  -5  15   11.90    3.00
  -9  -5 -15    4.30    2.60
   9  -5  15    4.60    2.30
  -9   5  15   -2.20    2.20
  -9   5 -15    2.90    2.10
   9  -5 -15    5.90    2.30
  -9  -5  15    3.90    2.30
   9   5  15    3.10    2.30
   0  -6  15   -0.50    1.00
   0  -6 -15    0.80    1.10
   0   6 -15   -0.50    1.50
   0   6 -15    0.50    1.40
   0  -6  15   -0.50    0.90
   0   6  15    0.20    0.80
   0   6  15    0.10    0.90
  -1   6  15   85.99    5.90
   1   6 -15   89.09    6.50
   1  -6  15   89.69    5.40
   1   6 -15   94.19    6.20
  -1  -6 -15   98.69    6.00
   1  -6  15   98.19    5.70
  -1   6  15   87.79    5.30
  -1   6 -15   88.19    6.40
   1   6  15   85.59    5.30
  -1   6 -15   87.59    6.00
   1   6  15   80.19    6.00
  -1  -6  15   89.89    5.80
   1  -6 -15   84.19    5.60
  -1  -6  15   87.29    5.40
   1  -6 -15   87.49    5.40
   2   6 -15    6.80    1.90
   2   6 -15    9.90    2.60
  -2   6  15    4.00    1.30
  -2  -6 -15    5.50    1.80
  -2   6  15    4.10    1.50
   2  -6  15    6.80    1.60
  -2   6 -15    6.00    1.80
  -2  -6  15    5.30    1.40
   2   6  15    4.70    1.50
  -2   6 -15    7.40    2.40
   2  -6 -15    5.80    1.60
  -2   6 -15    5.30    1.80
   2  -6 -15    7.50    1.90
   2   6  15    5.20    1.80
  -2  -6  15    3.50    1.60
  -3   6  15   64.59    4.70
   3   6 -15   60.19    4.80
   3  -6  15   48.80    4.10
  -3   6  15   50.59    3.90
  -3  -6 -15   53.99    4.50
   3   6 -15   72.79    6.50
  -3   6 -15   60.79    4.70
   3  -6 -15   49.50    4.30
  -3  -6  15   57.69    4.70
   3   6  15   53.69    4.40
  -3  -6  15   59.89    4.10
   3  -6 -15   57.69    4.50
   3   6  15   52.69    4.60
  -3   6 -15   58.59    5.80
  -3   6 -15   69.59    4.80
   4  -6  15   12.80    2.30
  -4   6  15   10.70    2.40
  -4  -6 -15   12.90    2.50
   4   6 -15   13.00    2.50
  -4  -6 -15    9.90    2.30
   4   6  15   12.00    2.50
  -4   6 -15   11.40    2.30
   4   6  15   14.40    2.60
   4   6  15   10.90    1.90
   4  -6 -15   16.10    2.50
  -4   6 -15   11.40    2.40
  -4  -6  15    8.10    2.20
  -4   6 -15   13.10    3.30
   4  -6 -15   11.40    2.40
   5   6 -15   14.90    2.80
  -5   6  15   15.80    2.90
   5  -6  15   11.10    2.40
  -5  -6 -15   15.90    2.90
  -5  -6 -15   12.20    2.40
  -5  -6  15   11.00    2.60
   5   6  15   16.00    2.50
   5  -6 -15   12.30    2.60
  -5   6 -15   17.90    3.00
  -5   6 -15   19.50    3.00
   5   6  15   14.40    2.90
  -6   6  15    8.90    2.30
   6  -6  15    3.60    1.80
  -6  -6 -15    7.00    2.30
  -6  -6 -15    4.70    2.00
   6   6 -15    5.80    2.20
  -6   6 -15    9.90    2.30
   6  -6 -15    4.90    2.00
  -6   6 -15    7.20    2.40
  -6   6 -15   11.10    2.40
  -6  -6  15    5.40    2.30
   6   6  15    7.00    2.20
   6   6  15    7.40    1.90
  -7  -6 -15   32.10    4.30
   7  -6  15   27.30    3.80
  -7  -6 -15   27.30    4.20
  -7   6  15   22.00    3.50
   7   6 -15   27.50    3.90
   7   6  15   26.30    3.60
  -7  -6  15   29.60    4.30
  -7   6 -15   32.00    4.00
   7   6  15   26.00    4.40
   7  -6 -15   26.10    4.10
  -8  -6 -15    0.20    2.00
  -8  -6 -15   -0.80    1.90
   8  -6  15    3.70    2.00
  -8   6  15    1.90    2.20
   8   6 -15    1.50    1.80
   8  -6 -15    1.60    1.60
   8   6  15    1.90    1.90
  -8   6 -15    2.00    1.90
  -8  -6  15    1.70    1.90
   8   6  15   -1.70    2.40
   0   7 -15  166.58    9.50
   0   7 -15  170.68    9.90
   0   7  15  144.69    7.80
   0  -7  15  170.38    8.60
   0   7  15  147.49    8.80
   0  -7  15  134.89    8.00
   0  -7 -15  158.68    9.10
  -1   7  15    6.20    1.80
   1   7 -15   10.00    2.50
   1  -7  15    8.40    1.80
  -1  -7 -15    9.80    2.10
  -1   7  15    8.10    1.70
   1  -7  15   10.50    2.10
   1   7 -15    8.30    2.20
  -1   7 -15    5.80    2.20
  -1  -7  15    7.50    1.90
  -1  -7  15    9.90    1.90
   1   7  15   11.90    2.40
   1  -7 -15    7.50    1.90
  -1   7 -15    8.00    2.20
   1   7  15   11.40    1.90
   1  -7 -15    9.90    1.90
  -2   7  15   53.59    4.40
   2  -7  15   49.60    3.90
  -2  -7 -15   50.79    4.30
   2   7 -15   59.99    4.60
   2   7 -15   67.59    6.20
  -2   7  15   54.09    3.70
   2   7  15   50.19    4.40
   2   7  15   42.80    3.60
   2  -7 -15   50.09    4.10
  -2   7 -15   49.90    5.40
  -2   7 -15   51.19    5.00
  -2  -7  15   51.39    4.40
  -2  -7  15   44.00    3.70
   2  -7 -15   46.50    4.10
  -2   7 -15   50.29    4.50
   3   7 -15    0.50    2.00
   3  -7  15    0.40    1.10
  -3   7  15    1.20    1.30
  -3  -7 -15   -0.80    1.00
  -3   7  15    1.50    1.00
   3   7 -15    1.40    1.30
  -3   7 -15   -1.80    1.20
   3  -7 -15    0.90    1.20
  -3  -7  15    0.60    1.40
   3  -7 -15   -0.10    1.30
  -3  -7  15    0.40    1.00
  -3   7 -15    1.90    1.40
   3   7  15    1.10    1.50
  -3   7 -15   -0.30    1.90
   3   7  15    1.30    1.50
   4   7 -15   44.20    4.80
  -4  -7 -15   39.40    4.30
  -4  -7 -15   48.40    5.30
   4  -7  15   46.40    4.60
   4   7 -15   39.40    8.20
   4  -7 -15   44.90    4.70
  -4   7 -15   46.10    4.70
   4   7  15   43.70    4.50
  -4   7 -15   38.50    4.40
  -4  -7  15   39.30    4.60
   4  -7 -15   48.70    4.80
  -4   7 -15   48.00    5.60
  -4  -7  15   46.40    6.30
  -5   7  15    1.30    1.30
  -5  -7 -15    0.50    1.50
   5   7 -15    0.50    1.50
  -5  -7 -15    1.90    1.70
   5  -7  15    0.50    1.30
   5   7  15   -0.60    1.60
  -5   7 -15   -0.30    1.60
  -5  -7  15    0.30    1.60
  -5   7 -15    0.80    1.60
  -5   7 -15    1.90    2.90
   5   7  15   -0.20    1.30
   5  -7 -15    0.80    1.50
   6   7 -15   27.00    4.00
  -6  -7 -15   18.40    3.50
  -6  -7 -15   23.60    3.60
  -6   7  15   26.60    3.70
   6  -7  15   26.60    3.70
   6  -7 -15   22.20    3.60
  -6  -7  15   24.30    3.70
  -6   7 -15   23.10    3.60
   6   7  15   22.60    3.90
   6   7  15   26.60    3.60
  -6   7 -15   24.30    3.60
   7   7 -15   16.80    3.20
  -7  -7 -15   11.50    3.00
  -7  -7 -15   14.40    3.30
   7  -7  15    8.10    2.50
  -7   7  15   12.50    3.00
   7   7  15   15.80    2.90
   7   7  15   17.30    3.90
  -7  -7  15   12.70    3.30
   7  -7 -15   15.80    3.30
   8  -7  15   -0.80    1.40
  -8  -7 -15    3.20    2.10
  -8   7  15    3.40    2.60
  -8  -7 -15    1.30    2.50
   8  -7 -15    2.50    2.50
   8   7  15    5.40    3.40
  -8  -7  15    2.50    2.20
   8   7  15    4.30    1.80
   0   8 -15    0.00    1.30
   0  -8 -15    0.20    1.10
   0   8 -15    3.90    2.00
   0  -8  15    0.50    1.00
   0   8  15   -0.90    1.20
   0  -8  15    0.00    1.20
   0   8  15   -0.30    0.80
   1  -8  15   41.20    4.20
  -1  -8 -15   39.50    4.30
  -1   8  15   39.10    3.10
  -1   8  15   46.20    4.80
   1   8 -15   49.70    5.00
   1   8 -15   56.89    5.70
  -1  -8  15   42.70    4.00
  -1   8 -15   44.80    5.20
   1  -8 -15   41.40    4.40
  -1   8 -15   38.00    4.50
   1   8  15   39.20    3.30
  -1  -8  15   46.50    3.70
   1   8  15   41.00    4.60
  -1   8 -15   46.40    4.80
   2  -8  15    9.10    1.90
   2   8 -15    8.90    2.70
  -2   8  15    6.80    2.10
  -2  -8 -15    4.90    1.90
  -2   8  15    6.90    1.60
   2   8 -15    9.40    2.40
  -2   8 -15    8.90    2.20
   2   8  15    6.70    2.00
  -2   8 -15    7.60    2.10
  -2  -8  15    9.70    2.30
   2   8  15    8.50    1.70
   2  -8 -15    3.50    1.70
   2  -8 -15    2.30    1.50
  -2   8 -15    1.00    1.90
  -2  -8  15    4.90    1.70
  -3   8  15   22.90    2.80
  -3   8  15   23.10    3.60
   3  -8  15   21.30    3.10
   3   8 -15   18.70    3.70
  -3  -8 -15   31.00    4.30
   3   8 -15   24.80    3.60
  -3  -8 -15   19.90    3.00
  -3   8 -15   28.90    3.90
   3  -8 -15   20.90    3.10
  -3  -8  15   22.80    3.50
   3   8  15   23.10    2.90
  -3   8 -15   25.30    3.70
  -3  -8  15   27.10    3.10
  -3   8 -15   22.90    4.00
   3  -8 -15   19.50    3.00
   4  -8  15   11.00    2.40
   4   8 -15    9.80    3.30
   4   8 -15   15.10    3.10
  -4  -8 -15    8.10    2.30
  -4  -8 -15   14.00    2.90
  -4   8 -15    7.20    2.20
   4   8  15    6.00    2.10
   4  -8 -15   11.90    2.60
  -4  -8  15   10.50    2.30
   4  -8 -15   12.20    2.60
  -4   8 -15    6.70    2.60
  -4   8 -15    9.80    2.60
  -4  -8  15    9.10    2.30
  -5  -8 -15    6.80    2.40
  -5  -8 -15    3.80    2.00
   5  -8  15    6.20    2.00
  -5   8  15    4.80    1.90
   5   8 -15    6.00    2.10
  -5   8 -15    7.10    2.30
  -5   8 -15    3.60    2.20
   5   8  15    9.20    2.70
  -5   8 -15    7.30    3.10
  -5  -8  15    6.80    2.50
   5   8  15    4.40    2.10
   5  -8 -15    6.40    2.30
  -6  -8 -15   14.90    3.10
   6   8 -15   13.40    3.00
  -6  -8 -15   12.50    3.10
   6  -8  15   13.40    2.80
  -6   8  15   16.00    3.00
  -6   8 -15   12.30    3.00
  -6  -8  15   13.00    3.00
   6  -8 -15   16.90    3.30
  -6   8 -15   16.10    3.40
   6   8  15    9.70    2.50
   6   8  15   11.80    3.10
  -7   8  15   16.00    3.30
  -7  -8 -15   19.40    3.60
   7   8 -15   21.30    3.70
   7  -8  15   17.20    3.20
  -7  -8 -15   16.00    3.60
  -7   8 -15   20.60    4.10
  -7  -8  15   14.10    3.30
   7   8  15   13.80    3.70
  -7   8 -15   15.40    3.60
   7   8  15   17.70    3.20
   7  -8 -15   16.40    3.50
   0  -9  15   11.30    2.30
   0  -9 -15   14.10    2.70
   0   9  15   15.50    3.10
   0   9 -15    7.20    2.70
   0   9  15   12.40    1.90
   0  -9  15   11.90    2.50
   0   9 -15   11.40    2.70
  -1   9  15   34.10    2.90
  -1  -9 -15   35.40    3.90
  -1   9  15   35.90    4.40
   1   9 -15   32.80    4.30
   1  -9  15   35.70    3.90
   1   9 -15   29.80    4.40
  -1  -9  15   35.10    3.90
  -1  -9  15   32.30    3.90
  -1   9 -15   39.50    4.60
  -1   9 -15   30.20    4.10
   1   9  15   31.50    3.20
   1   9  15   35.00    4.20
   1  -9 -15   34.00    4.00
  -1   9 -15   32.10    4.40
   2  -9  15    6.30    1.90
   2   9 -15    2.50    1.90
  -2   9  15    5.00    2.00
   2   9 -15    3.10    2.10
  -2  -9 -15    2.30    1.70
  -2   9  15    6.30    1.60
   2  -9 -15    3.80    2.00
  -2   9 -15    4.40    2.10
   2   9  15    1.50    1.60
   2  -9 -15    3.90    1.90
  -2   9 -15    1.00    1.70
   2   9  15    2.70    1.40
  -2  -9  15    4.30    1.60
  -2  -9  15    3.40    2.00
  -2   9 -15    7.60    2.70
   3   9 -15   16.70    3.70
   3   9 -15   20.50    3.40
  -3  -9 -15   16.50    3.10
   3  -9  15   18.80    3.00
  -3  -9 -15   17.10    3.50
  -3  -9  15   21.10    3.10
   3  -9 -15   19.70    3.20
  -3  -9  15   17.40    3.10
  -3   9 -15   14.90    3.40
   3   9  15   14.20    2.50
  -3   9 -15   20.50    3.40
  -3   9 -15   19.30    3.30
   3  -9 -15   23.10    3.40
   4   9 -15   23.70    4.20
   4  -9  15   23.70    3.40
  -4   9  15   22.30    3.30
  -4  -9 -15   12.90    3.10
   4   9 -15   33.00    4.40
  -4  -9 -15   19.90    3.30
  -4  -9  15   28.60    3.60
  -4   9 -15   20.80    3.50
   4  -9 -15   22.40    3.50
  -4  -9  15   18.80    3.40
  -4   9 -15   21.80    3.60
   4   9  15   19.40    3.10
  -4   9 -15   19.80    4.00
   4  -9 -15   23.00    3.40
   5  -9  15   -1.50    1.30
  -5  -9 -15    1.70    1.90
  -5   9  15   -2.30    1.00
   5   9 -15    1.10    1.80
  -5  -9 -15    0.30    1.80
  -5   9 -15    1.30    2.10
   5  -9 -15    2.80    2.00
  -5   9 -15    0.90    2.50
  -5  -9  15    2.70    2.10
  -5   9 -15    3.30    2.00
   5   9  15    1.40    2.10
   6   9 -15    7.10    2.60
   6  -9  15    4.60    1.90
  -6  -9 -15    4.10    2.30
  -6   9  15    3.80    1.90
  -6  -9 -15    8.10    2.70
   6  -9 -15    7.20    2.50
   6   9  15    3.30    2.30
  -6   9 -15    1.00    3.30
  -6   9 -15    2.20    2.10
  -6   9 -15    9.70    3.10
   6   9  15    3.40    2.60
  -6  -9  15    4.20    2.60
   7  -9  15    7.70    2.30
  -7  -9 -15    4.70    2.40
  -7  -9 -15    7.10    3.20
  -7   9  15    4.70    2.30
  -7   9 -15    4.00    2.60
  -7  -9  15    4.20    2.50
   7  -9 -15    2.60    2.70
   7   9  15    6.20    3.60
  -7   9 -15    0.60    2.70
   7   9  15    5.00    2.40
   0 -10 -15    2.20    1.60
   0  10 -15    1.50    1.80
   0  10  15   -0.50    1.40
   0 -10  15    1.00    1.50
   0  10 -15    0.50    2.10
   0  10  15   -0.30    0.90
   1  10 -15   14.60    3.30
  -1 -10 -15   11.80    2.60
   1 -10  15    9.60    2.40
  -1  10  15   14.70    2.80
  -1  10  15    8.90    1.80
   1  10 -15   13.70    3.10
  -1 -10  15   10.10    2.60
  -1  10 -15    9.80    3.10
   1  10  15   10.90    1.90
  -1  10 -15   14.80    3.20
   1  10  15   14.10    3.10
   1 -10 -15   10.50    2.60
  -1  10 -15    8.20    2.70
  -1 -10  15    9.10    2.20
   2  10 -15    2.80    2.00
   2 -10  15    0.90    1.30
  -2  10  15    1.80    1.20
  -2 -10 -15    0.20    1.80
   2  10 -15    3.80    2.50
   2  10  15    2.00    1.70
  -2 -10  15    1.40    1.70
  -2  10 -15    3.00    2.10
  -2  10 -15    2.60    2.00
   2 -10 -15    5.50    2.10
   2  10  15    1.00    1.30
  -2 -10  15    3.00    1.80
  -2  10 -15   -1.80    1.90
   3 -10  15    4.40    1.90
   3  10 -15    8.20    2.50
  -3 -10 -15    6.30    2.50
   3  10 -15    8.20    3.20
  -3 -10 -15    1.60    1.90
  -3  10 -15    8.80    3.00
   3  10  15    3.50    1.70
  -3 -10  15    3.80    2.10
  -3  10 -15    5.70    2.40
   3 -10 -15    3.60    2.00
   3 -10 -15    6.60    2.40
  -3 -10  15    4.10    2.00
  -3  10 -15    6.20    2.40
  -4 -10 -15    4.70    2.50
  -4  10  15    1.10    1.70
   4 -10  15    6.70    2.20
   4  10 -15    8.60    2.70
   4  10 -15    4.90    3.20
  -4 -10 -15    4.70    2.20
   4 -10 -15    4.10    2.20
  -4 -10  15    8.00    2.50
  -4  10 -15    5.10    3.00
   4  10  15    8.00    2.10
  -4  10 -15    3.00    2.00
  -4  10 -15    5.50    2.50
  -4 -10  15    8.40    2.30
   5  10 -15    7.00    2.60
   5  10 -15    8.80    2.80
  -5  10  15    6.80    2.30
  -5 -10 -15    8.80    2.80
  -5 -10 -15    6.60    2.70
   5 -10  15    9.30    2.50
   5 -10 -15    8.40    2.50
  -5  10 -15    8.40    3.50
   5  10  15    5.40    2.70
  -5  10 -15    9.90    3.20
  -5 -10  15    9.20    2.90
  -5  10 -15    7.50    2.80
  -6  10  15    4.00    2.10
   6  10 -15   12.20    3.30
  -6 -10 -15    7.60    2.70
   6 -10  15   12.10    2.90
   6 -10 -15    8.90    3.00
   6  10  15   11.00    3.60
  -6  10 -15    5.50    3.30
  -6 -10  15   10.10    3.80
  -6  10 -15    9.20    3.10
  -6  10 -15   10.00    4.40
   0  11 -15   44.00    5.60
   0 -11  15   43.70    4.80
   0  11  15   37.70    5.00
   0  11 -15   31.80    4.60
   0 -11 -15   49.90    5.10
   0  11  15   44.80    3.40
   1 -11  15    7.90    2.20
   1  11 -15    8.20    2.70
  -1  11  15   10.10    3.00
   1  11 -15    5.80    2.80
  -1  11  15    4.80    1.50
  -1 -11 -15    8.40    2.60
   1 -11 -15    9.90    2.60
   1  11  15    9.10    2.80
  -1  11 -15    5.70    2.40
  -1  11 -15    9.40    3.30
  -1  11 -15    6.00    2.40
  -1 -11  15    6.40    2.30
   1  11  15    9.00    1.80
   2  11 -15   25.60    4.20
   2  11 -15   20.10    4.30
  -2  11  15   17.60    2.20
  -2 -11 -15   23.20    3.80
   2 -11  15   21.60    3.50
  -2  11 -15   15.70    3.80
   2 -11 -15   16.70    3.20
  -2  11 -15   16.90    3.50
  -2 -11  15   18.20    3.50
   2  11  15   11.90    2.20
  -2 -11  15   17.10    3.10
   2  11  15   16.00    3.40
  -2  11 -15   20.00    3.70
  -3 -11 -15   19.00    4.10
  -3 -11 -15   19.30    3.60
   3  11 -15   20.50    3.90
   3  11 -15   17.40    4.20
   3 -11  15   21.30    3.50
  -3 -11  15   22.20    3.40
  -3  11 -15   18.30    3.80
  -3 -11  15   14.50    3.30
   3 -11 -15   22.80    3.80
   3  11  15   14.10    2.60
  -3  11 -15   19.70    3.80
  -3  11 -15   23.50    4.60
   4  11 -15   33.20    4.90
  -4 -11 -15   18.50    4.40
   4 -11  15   25.90    3.90
   4  11 -15   23.60    4.80
  -4  11  15   29.40    4.00
  -4 -11  15   32.40    4.80
  -4  11 -15   30.10    5.40
   4 -11 -15   30.60    4.40
  -4 -11  15   25.00    3.80
  -4  11 -15   24.50    4.30
  -4  11 -15   29.30    4.70
   4  11  15   22.70    3.30
   5  11 -15   19.90    4.10
   5 -11  15   20.00    3.50
   5  11 -15   24.20    4.00
  -5 -11 -15   22.20    5.00
   5  11 -15   23.40    5.50
  -5  11  15   18.80    3.60
  -5 -11  15   13.90    3.80
   5  11  15   20.90    3.60
  -5  11 -15   23.90    4.80
  -5  11 -15   21.10    4.30
  -5  11 -15   20.50    4.90
   5 -11 -15   22.10    4.20
   0  12 -15   -0.50    1.60
   0 -12 -15    1.30    2.20
   0 -12  15    2.90    1.60
   0  12 -15   -0.30    2.70
   0  12  15    0.10    2.30
   0  12  15    0.30    1.10
   1 -12  15    1.80    1.70
  -1  12  15    1.20    1.10
  -1 -12 -15    3.40    2.40
   1  12 -15   -3.00    2.50
   1  12 -15    1.50    1.90
  -1  12 -15    0.20    3.10
   1 -12 -15    4.80    2.50
   1  12  15    2.20    1.30
  -1  12 -15   -1.10    1.40
   1  12  15    2.80    2.30
  -1 -12  15    1.10    1.80
  -1  12 -15    1.60    1.70
   2  12 -15    3.00    2.20
   2  12 -15    5.50    3.30
   2 -12  15    1.00    1.60
  -2  12 -15    5.00    3.40
  -2  12 -15    2.40    1.90
   2 -12 -15    8.40    2.80
   2  12  15    3.10    1.40
  -2  12 -15    0.30    1.70
   2  12  15    3.60    2.20
  -2 -12  15    5.60    2.10
   3  12 -15   10.40    3.10
   3 -12  15    5.90    2.30
  -3 -12 -15   11.50    3.80
  -3  12  15    8.30    2.50
   3  12 -15    8.10    3.90
  -3 -12  15    5.60    2.40
  -3  12 -15    8.80    4.10
  -3  12 -15    5.80    3.10
  -3 -12  15    8.20    3.10
  -3  12 -15   10.40    3.90
   3  12  15   16.80    2.60
   0   0  16  422.66   19.80
   0   0 -16  447.86   20.70
   0   0  16  424.66   19.90
   0   0 -16  471.25   20.80
  -1   0  16    1.80    1.40
  -1   0 -16   -0.10    0.80
  -1   0  16   -0.50    0.80
  -1   0 -16    0.30    0.70
   1   0 -16    0.00    0.70
   1   0  16    1.60    1.50
   1   0  16   -0.20    0.90
   1   0 -16   -0.20    0.80
   2   0 -16  533.55   23.00
   2   0 -16  485.95   23.30
   2   0  16  544.05   24.30
  -2   0  16  516.05   24.40
  -2   0 -16  501.65   22.80
   2   0  16  544.25   23.50
  -2   0 -16  537.65   23.30
   2   0  16  532.55   24.60
  -2   0  16  516.75   24.40
   3   0  16   -1.60    1.00
   3   0 -16    0.60    0.90
  -3   0  16    0.20    1.00
   3   0  16   -0.70    0.80
   3   0  16    0.80    1.50
  -3   0 -16   -0.70    0.80
   3   0 -16    0.10    0.70
   4   0  16  115.69    6.70
  -4   0 -16  105.59    6.50
   4   0  16  116.99    7.70
   4   0 -16  112.59    6.20
  -4   0  16  126.79    7.50
   4   0  16  124.39    7.20
   4   0 -16  111.59    6.70
   5   0  16   -0.20    1.00
   5   0 -16   -0.40    1.00
  -5   0 -16    0.50    1.00
   5   0  16   -0.10    1.20
  -5   0  16    0.60    1.10
  -5   0  16    0.00    1.10
   6   0 -16    1.50    1.40
  -6   0 -16   -0.70    1.00
  -6   0  16    1.80    1.30
   6   0  16   -0.50    1.10
  -6   0  16    0.10    1.10
  -7   0 -16    1.50    1.30
   7   0 -16    0.10    1.20
   7   0  16    2.60    1.60
  -7   0  16   -0.20    1.30
   8   0 -16   31.60    4.30
   8   0  16   33.00    4.20
  -8   0 -16   31.10    4.00
   9   0 -16   -0.90    1.60
  -9   0 -16   -0.10    1.70
   9   0  16   -0.90    1.50
   0  -1  16    0.00    1.20
   0   1 -16   -0.40    0.90
   0  -1 -16    1.00    0.90
   0   1  16    1.40    1.10
   0   1  16    1.30    1.30
   0  -1 -16    1.10    0.90
   0   1 -16   -0.10    0.70
   0  -1  16    0.40    1.00
   1  -1  16    8.10    1.30
  -1  -1 -16   10.00    1.60
   1   1 -16    6.10    1.40
  -1  -1 -16    4.80    1.30
   1   1 -16    7.20    1.40
  -1   1  16    5.10    1.50
   1  -1  16    7.30    1.80
   1  -1  16    4.90    1.80
  -1   1  16    6.40    1.90
  -1   1 -16    7.40    1.50
   1   1  16    8.10    2.00
   1  -1 -16    6.80    1.40
  -1   1 -16    6.40    1.40
  -1  -1  16    8.90    2.20
   1   1  16    8.30    1.90
   1  -1 -16    9.20    1.70
  -1  -1  16    6.70    1.80
  -2  -1 -16    8.00    1.50
  -2  -1 -16    7.50    1.60
   2  -1  16    8.00    1.40
   2   1 -16    5.40    1.30
  -2   1  16    3.20    1.50
   2   1 -16    5.40    1.50
   2  -1  16    7.70    1.80
   2  -1  16    6.10    2.00
  -2   1  16   11.40    2.10
   2   1  16    8.10    1.50
   2   1  16    5.50    1.90
  -2   1 -16    7.90    1.60
  -2  -1  16    4.80    1.70
   2  -1 -16    5.20    1.30
   2   1  16    6.10    1.70
  -2  -1  16    5.10    1.60
   2  -1 -16    8.20    1.60
  -2   1 -16    7.70    1.50
   3   1 -16   33.10    3.00
  -3   1  16   29.80    3.60
   3   1 -16   24.10    3.00
  -3   1  16   30.40    3.50
  -3  -1 -16   29.30    3.20
   3  -1  16   29.00    2.90
   3  -1  16   39.30    3.40
   3  -1  16   25.30    3.50
   3  -1 -16   32.10    3.10
   3   1  16   24.90    3.30
   3  -1 -16   27.40    3.10
  -3  -1  16   26.60    3.20
   3   1  16   24.40    2.60
  -3   1 -16   29.50    2.80
   3   1  16   29.00    3.40
  -3   1 -16   27.00    2.90
   4  -1  16   15.80    2.40
   4   1 -16   16.80    2.70
  -4  -1 -16   12.40    2.30
   4  -1  16   12.40    2.00
  -4   1  16   13.60    2.40
  -4   1 -16   16.10    2.40
   4   1  16   20.70    2.90
   4  -1 -16   16.30    2.20
   4  -1 -16   17.10    2.70
   4   1  16   12.40    2.00
  -4  -1  16   19.10    2.30
   4   1  16   21.60    3.30
  -4  -1  16   16.50    2.60
   5   1 -16  144.29    8.20
  -5  -1 -16  133.09    7.80
  -5   1  16  141.19    8.50
   5  -1  16  148.29    8.10
  -5   1  16  148.09    8.00
   5   1  16  138.19    7.90
  -5   1 -16  142.39    8.00
   5  -1 -16  128.99    8.10
   5   1  16  158.18    9.20
   5   1  16  150.98    8.50
  -5  -1  16  130.79    8.30
   6  -1  16    8.00    2.10
  -6  -1 -16    3.10    1.60
  -6   1  16    4.50    1.60
  -6   1  16    3.30    1.60
   6   1 -16    7.40    2.20
   6   1  16    2.90    1.90
   6  -1 -16    4.70    1.70
   6   1  16    5.30    1.80
  -6  -1  16    4.50    1.90
  -6   1 -16    7.10    1.90
   7  -1  16   39.30    4.50
  -7  -1 -16   34.50    4.10
  -7   1  16   32.80    3.80
   7   1 -16   33.00    4.10
  -7   1  16   49.20    5.10
  -7  -1  16   42.60    4.80
   7  -1 -16   37.00    4.40
  -7   1 -16   39.00    4.40
   7   1  16   51.09    5.00
   8  -1  16    4.60    2.20
  -8  -1 -16    4.00    1.80
  -8   1  16    4.80    2.30
   8   1 -16    3.70    2.00
   8   1  16    3.60    2.00
   8  -1 -16    4.20    1.80
  -8   1 -16    3.50    1.70
  -8  -1  16    4.90    2.10
   9  -1  16   24.50    3.90
   9   1 -16   20.50    3.60
  -9  -1 -16   25.70    4.40
   9   1  16   25.30    4.00
   9  -1 -16   27.30    4.10
  -9   1 -16   31.10    4.20
   0   2 -16 1009.40   43.00
   0  -2  16  909.31   42.10
   0   2  16 1030.30   42.60
   0  -2 -16  950.20   42.50
   0  -2 -16  971.30   42.90
   0   2  16  922.21   42.10
   0  -2  16  989.30   42.50
   0   2 -16 1013.60   42.50
   1   2 -16  212.68   11.50
   1  -2  16  223.28   11.80
   1  -2  16  240.28   11.50
  -1   2  16  212.48   11.30
  -1  -2 -16  258.77   11.10
  -1   2  16  221.18   11.60
   1  -2  16  233.98   10.70
   1   2 -16  234.68   11.00
  -1  -2 -16  227.88   11.50
  -1   2 -16  239.58   11.20
   1   2  16  234.28   11.80
   1  -2 -16  215.98   11.20
   1  -2 -16  232.38   11.50
  -1  -2  16  212.18   11.50
  -1  -2  16  223.18   11.70
  -1   2 -16  234.78   11.40
   1   2  16  220.38   11.50
   2  -2  16  510.65   22.60
   2   2 -16  508.55   23.30
   2  -2  16  513.15   23.20
   2   2 -16  528.85   22.70
  -2   2  16  508.25   23.40
  -2  -2 -16  493.35   23.20
  -2   2  16  512.35   23.50
   2  -2 -16  527.85   23.20
  -2   2 -16  522.35   23.00
   2   2  16  475.45   23.30
   2  -2 -16  465.35   22.90
  -2  -2  16  510.35   23.50
  -2   2 -16  521.05   23.00
  -2  -2  16  527.35   23.80
   2   2  16  495.25   23.40
   3  -2  16  119.09    6.80
   3  -2  16  128.09    7.10
   3   2 -16  114.69    7.30
  -3   2  16  124.99    7.50
  -3  -2 -16  129.39    7.40
  -3   2  16  122.69    7.40
  -3   2 -16  135.89    7.20
   3  -2 -16  133.39    7.20
  -3  -2  16  127.79    7.50
   3   2  16  117.09    7.30
  -3   2 -16  131.99    7.10
   3   2  16  133.39    6.80
   3   2  16  135.89    7.80
   3  -2 -16  137.19    7.50
  -4  -2 -16  150.98    8.30
   4   2 -16  153.28    8.50
  -4   2  16  149.19    8.70
   4  -2  16  159.28    8.30
   4  -2  16  159.98    8.40
   4   2  16  146.29    9.00
   4   2  16  144.89    8.60
   4   2  16  160.28    8.20
  -4  -2  16  150.08    8.80
   4  -2 -16  149.09    8.00
  -4   2 -16  146.79    8.00
   4  -2 -16  134.99    8.20
  -5  -2 -16    7.30    1.80
  -5   2  16    6.50    1.70
   5   2 -16    4.20    1.50
  -5   2  16    6.90    1.80
   5  -2  16    8.50    1.90
   5   2  16    8.10    1.90
  -5  -2  16    5.50    2.00
   5   2  16    7.00    2.40
   5   2  16    6.60    1.90
  -5   2 -16    7.10    1.80
   5  -2 -16    5.60    1.90
   6   2 -16   37.00    4.10
  -6   2  16   40.60    4.30
   6  -2  16   35.60    4.00
  -6  -2 -16   31.00    3.80
  -6   2  16   40.50    4.20
   6   2  16   40.90    4.30
   6  -2 -16   35.60    4.10
  -6   2 -16   37.20    4.00
   6   2  16   46.20    4.70
   6   2  16   52.89    5.70
  -6  -2  16   40.30    4.50
   7  -2  16    1.30    1.50
  -7   2  16    1.40    1.50
  -7  -2 -16    2.20    1.60
   7   2 -16    3.00    1.80
  -7  -2  16    4.90    2.00
   7  -2 -16    1.30    1.50
  -7   2 -16    1.20    1.50
   7   2  16   -0.50    1.50
  -8   2  16   13.30    2.70
   8  -2  16   14.10    3.00
  -8  -2 -16   12.60    2.80
   8   2 -16   15.60    3.20
  -8  -2  16   15.50    3.20
   8   2  16   13.80    2.80
   8  -2 -16   11.20    2.70
  -8   2 -16   15.80    3.10
  -9   2  16    9.10    2.60
   9  -2  16    7.60    2.60
   9   2 -16    6.40    2.50
  -9  -2 -16   10.00    3.20
   9   2  16    4.00    2.10
  -9   2 -16    8.70    2.50
   9  -2 -16   10.20    2.70
   0  -3  16   -0.20    0.70
   0   3  16    0.80    1.20
   0  -3 -16   -1.80    0.60
   0  -3 -16    1.10    0.90
   0   3  16    0.40    1.00
   0   3 -16    0.30    1.00
   0  -3  16   -1.20    0.90
  -1  -3 -16   77.29    5.10
  -1   3  16   75.19    5.30
   1  -3  16   78.69    5.10
   1  -3  16   77.29    4.50
  -1  -3 -16   71.29    4.90
  -1   3  16   73.69    5.10
   1   3 -16   79.49    5.30
   1  -3 -16   75.79    5.00
   1   3  16   71.19    5.30
   1  -3 -16   82.89    5.00
  -1   3 -16   87.39    5.20
  -1   3 -16   81.29    4.70
   1   3  16   78.19    5.20
  -1  -3  16   80.29    5.30
   2   3 -16   58.69    4.40
  -2  -3 -16   62.79    4.40
  -2   3  16   53.79    4.30
   2  -3  16   57.09    4.20
   2  -3  16   56.49    3.90
  -2   3  16   53.69    4.30
   2   3  16   61.19    4.50
  -2   3 -16   59.79    4.00
   2  -3 -16   50.89    4.00
  -2   3 -16   69.49    4.40
   2  -3 -16   56.99    4.20
  -2  -3  16   60.89    4.50
   2   3  16   57.09    4.50
   3  -3  16   43.50    3.60
  -3   3  16   43.40    3.90
  -3   3  16   46.20    4.00
   3   3 -16   29.50    3.60
  -3  -3 -16   36.80    3.80
   3  -3  16   45.60    3.50
  -3   3 -16   45.70    3.30
   3   3  16   49.80    3.50
   3   3  16   47.70    4.60
  -3  -3  16   42.60    4.00
  -3   3 -16   47.40    3.60
   3  -3 -16   38.80    3.80
   3   3  16   49.90    4.20
   3  -3 -16   41.90    3.40
  -4  -3 -16    1.70    1.20
   4   3 -16    0.00    1.10
  -4   3  16   -0.80    1.00
   4  -3  16   -0.70    0.90
  -4   3 -16   -0.40    1.10
   4   3  16    0.30    1.60
   4   3  16   -0.30    1.30
  -4  -3  16    0.60    1.20
   4  -3 -16   -0.20    0.80
  -4   3 -16    2.50    1.10
   4   3  16    1.30    1.10
   4  -3 -16    1.10    1.30
  -5  -3 -16   15.00    2.70
   5   3 -16   20.00    3.10
  -5   3  16   20.80    3.00
  -5   3  16   20.70    2.80
   5  -3  16   17.50    2.60
   5   3  16   14.50    3.00
  -5  -3  16   21.60    3.20
   5  -3 -16   16.50    2.80
   5   3  16   18.40    3.00
   5   3  16   20.70    2.70
  -5   3 -16   20.50    2.90
  -6   3  16   12.50    2.50
   6   3 -16   10.10    2.40
   6  -3  16   10.60    2.30
  -6   3  16   11.40    2.50
  -6  -3 -16   11.40    2.40
  -6   3 -16   12.20    2.30
   6   3  16    8.20    2.40
   6  -3 -16   12.40    2.60
  -6  -3  16   12.20    2.60
   6   3  16   12.10    2.30
   6   3  16    9.20    2.80
  -7   3  16   12.20    2.50
   7   3 -16    7.60    2.30
   7  -3  16   14.50    2.90
  -7  -3 -16   15.10    3.00
  -7   3 -16   13.90    2.60
  -7  -3  16   14.20    3.10
   7   3  16   12.30    2.90
   7   3  16   11.30    4.10
   7  -3 -16   10.00    2.50
   7   3  16   13.00    2.70
   8   3 -16   35.70    4.70
  -8  -3 -16   36.10    4.50
  -8   3  16   42.10    4.70
   8  -3  16   33.90    4.40
  -8   3 -16   39.60    4.80
   8  -3 -16   33.90    4.80
  -8  -3  16   43.60    5.30
   8   3  16   35.80    4.40
   9  -3  16    4.80    2.00
  -9  -3 -16    3.50    2.60
  -9   3  16    4.10    2.40
   9   3 -16    3.00    1.90
   9  -3 -16    4.80    2.30
   9   3  16    0.30    1.70
  -9   3 -16    5.70    2.40
  -9  -3  16    3.60    2.40
   0  -4 -16  198.28    9.60
   0   4  16  161.68    9.20
   0   4 -16  198.58   10.30
   0  -4 -16  180.38    9.90
   0  -4  16  193.28    9.60
   0  -4  16  180.98    8.80
   0   4  16  170.88    9.70
   0   4 -16  194.08   11.60
   1  -4  16  856.21   37.30
  -1  -4 -16  864.71   38.30
  -1   4  16  813.52   37.10
  -1   4  16  854.31   37.70
   1  -4  16  841.32   36.70
   1   4 -16  844.22   38.40
   1  -4 -16  863.91   38.30
   1  -4 -16  828.12   37.80
  -1  -4  16  853.71   36.50
  -1   4 -16  955.10   40.40
   1   4  16  819.02   37.70
  -1  -4  16  885.41   37.50
  -1   4 -16  872.81   38.30
   1   4  16  826.82   37.20
  -2   4  16   98.59    6.60
   2  -4  16  116.79    6.40
  -2   4  16  114.29    6.60
  -2  -4 -16  112.89    6.60
   2   4 -16  103.59    6.70
   2  -4  16  103.09    6.10
   2   4  16  104.79    6.60
   2   4  16  108.49    6.90
  -2  -4  16  107.79    6.70
   2  -4 -16  108.89    6.50
  -2   4 -16  115.59    6.70
   2  -4 -16   96.89    6.20
  -2   4 -16  117.79    6.70
   3  -4  16  149.69    8.30
  -3   4  16  144.09    8.50
   3  -4  16  147.79    8.10
  -3   4  16  141.09    8.30
  -3  -4 -16  152.28    8.60
   3   4 -16  150.98    8.70
   3  -4 -16  146.19    8.40
   3  -4 -16  154.58    8.50
  -3  -4  16  151.18    8.80
   3   4  16  164.08    9.10
  -3   4 -16  159.58    8.60
  -3   4 -16  158.78    8.20
   3   4  16  154.78    8.70
   4  -4  16   15.50    2.40
  -4   4  16   16.90    2.70
  -4  -4 -16   16.50    2.80
   4   4 -16   19.20    2.90
  -4  -4  16   12.60    2.50
   4   4  16   13.70    2.50
   4  -4 -16   16.70    2.70
  -4   4 -16   14.80    2.50
   4   4  16   17.30    2.40
   4   4  16   11.60    2.50
  -4   4 -16   17.60    2.60
  -4   4 -16   16.60    2.40
   4  -4 -16   20.60    2.80
   5   4 -16  114.89    7.40
  -5  -4 -16  102.89    7.00
  -5   4  16  114.19    7.10
   5  -4  16  110.59    7.10
  -5   4  16  130.99    7.60
   5   4  16  119.79    7.00
   5  -4 -16  116.29    7.30
   5   4  16  112.09    7.50
   5   4  16  104.09    7.50
  -5   4 -16  121.89    7.00
  -5  -4  16  128.09    7.90
   6  -4  16    7.40    2.00
  -6  -4 -16    0.10    1.40
   6   4 -16    5.50    1.90
  -6   4  16    7.50    2.00
   6   4  16    7.50    2.40
   6   4  16    8.60    2.00
  -6   4 -16    8.00    1.90
   6  -4 -16   11.60    2.50
  -6  -4  16    8.70    2.40
   6   4  16    8.90    2.80
  -7   4  16   49.30    5.00
   7  -4  16   45.50    4.90
   7   4 -16   48.00    5.20
  -7   4 -16   60.29    5.00
  -7  -4  16   46.90    5.50
   7   4  16   48.30    4.90
   7   4  16   47.60    5.30
   7  -4 -16   34.60    4.70
   7   4  16   40.00    5.60
  -8   4  16    3.20    2.00
   8   4 -16   -1.50    1.50
  -8  -4 -16    3.20    2.40
   8  -4  16    1.30    1.60
  -8   4 -16    0.30    1.60
   8  -4 -16    0.50    1.60
  -8  -4  16    1.40    1.80
   8   4  16    0.40    1.60
  -9  -4 -16    3.70    2.70
   9   4 -16    0.90    2.00
   9  -4  16    1.70    1.80
  -9   4  16    0.00    2.30
  -9   4 -16    1.40    2.00
  -9  -4  16   -0.50    2.10
   9  -4 -16    4.30    2.00
   9   4  16    0.70    1.70
   0  -5  16    1.80    1.20
   0   5  16    0.90    1.00
   0  -5 -16    1.50    1.60
   0  -5  16    1.10    0.90
   0   5 -16    0.20    1.10
   0   5 -16   -1.20    1.60
   0  -5 -16    0.40    0.90
   0   5  16    1.10    1.20
   1   5 -16   15.40    2.60
   1   5 -16   20.70    3.30
  -1  -5 -16   13.50    2.40
   1  -5  16   15.90    2.30
  -1   5  16   17.00    2.70
   1  -5  16   10.60    1.80
  -1   5  16   12.00    2.10
   1   5  16   13.10    2.50
  -1   5 -16   18.90    3.40
   1  -5 -16   20.20    2.50
  -1  -5  16    8.80    2.10
  -1   5 -16   12.40    2.40
   1  -5 -16   11.40    2.10
   1   5  16   11.50    2.10
  -1  -5  16   12.40    2.00
  -2   5  16   38.80    3.60
   2  -5  16   42.70    3.40
   2  -5  16   32.40    3.30
  -2  -5 -16   32.50    3.70
   2   5 -16   37.30    4.00
  -2   5  16   37.80    3.70
   2  -5 -16   34.20    3.60
   2   5  16   34.70    4.10
  -2   5 -16   45.80    4.30
  -2   5 -16   36.40    4.60
  -2  -5  16   36.30    4.10
   2   5  16   35.70    3.80
   2  -5 -16   29.90    3.30
  -3   5  16   29.20    3.50
  -3   5  16   23.60    3.00
   3   5 -16   26.20    3.50
   3  -5  16   27.10    3.00
  -3  -5 -16   24.50    3.40
   3  -5 -16   28.70    3.40
  -3  -5  16   26.00    3.50
   3  -5 -16   23.70    3.10
   3   5  16   30.90    3.70
   3   5  16   28.80    3.80
  -3   5 -16   31.60    3.60
  -3   5 -16   36.10    3.80
  -4   5  16   21.90    3.20
   4   5 -16   18.50    3.00
  -4  -5 -16   21.60    3.20
   4  -5  16   22.30    3.00
  -4   5 -16   18.40    2.80
  -4  -5  16   24.50    3.60
  -4   5 -16   19.10    3.10
   4  -5 -16   19.30    3.00
   4   5  16   14.10    2.70
   4   5  16   19.60    2.60
   4  -5 -16   15.60    2.60
  -4   5 -16   22.80    3.10
   4   5  16   16.20    3.00
  -5   5  16   52.99    4.20
  -5  -5 -16   39.90    4.40
   5  -5  16   49.70    4.20
   5   5 -16   40.20    4.50
   5   5  16   48.10    5.10
  -5   5 -16   51.89    4.40
   5  -5 -16   48.50    5.00
   5   5  16   44.60    3.80
  -5   5 -16   51.69    4.40
   5   5  16   41.20    4.70
  -5   5 -16   48.80    4.10
  -5  -5  16   46.00    4.90
   6   5 -16    3.80    1.90
  -6   5  16    7.30    2.10
  -6  -5 -16    8.80    2.40
   6  -5  16    8.90    2.30
  -6   5 -16    8.60    2.10
   6   5  16    5.10    2.50
   6   5  16    6.70    2.30
  -6  -5  16    9.20    2.60
   6  -5 -16    3.90    1.80
   6   5  16    7.40    2.00
  -7   5  16    7.00    2.20
   7  -5  16    5.70    2.00
  -7  -5 -16    2.70    2.00
   7   5 -16    3.10    1.80
   7   5  16    3.90    2.30
  -7  -5  16    3.50    2.10
   7  -5 -16    5.70    2.00
  -7   5 -16    6.20    2.30
   7   5  16    7.30    2.30
   7   5  16    9.70    3.40
  -8   5  16   24.10    3.80
   8  -5  16   25.00    3.90
   8   5 -16   20.50    3.60
  -8  -5 -16   18.90    3.70
   8   5  16   19.60    3.50
  -8   5 -16   20.70    3.60
  -8  -5  16   17.60    3.50
   8  -5 -16   20.40    3.60
   8   5  16   20.40    4.90
   8   5  16   22.70    4.10
   0   6 -16  118.49    7.60
   0  -6  16  108.29    6.60
   0  -6  16  109.79    6.20
   0   6  16  106.19    6.20
   0   6 -16   99.09    6.70
   0   6  16   99.49    6.90
   0  -6 -16  104.69    6.60
  -1  -6 -16   36.90    4.00
  -1   6  16   38.30    3.40
   1  -6  16   49.99    3.90
   1   6 -16   50.59    5.30
   1  -6  16   41.70    3.40
  -1   6  16   37.40    4.20
   1   6 -16   44.40    4.70
  -1   6 -16   38.80    4.20
   1   6  16   49.10    4.30
  -1   6 -16   48.80    5.10
   1  -6 -16   42.80    3.70
   1  -6 -16   47.60    3.60
  -1  -6  16   44.30    3.90
  -1  -6  16   42.40    3.40
   1   6  16   39.50    3.40
  -2   6  16   29.90    3.30
   2  -6  16   34.40    3.50
   2   6 -16   34.70    4.10
  -2  -6 -16   29.10    3.60
   2   6 -16   47.00    5.30
  -2   6  16   35.40    4.00
  -2   6 -16   34.60    4.60
  -2  -6  16   31.10    3.30
  -2   6 -16   36.40    4.10
  -2   6 -16   36.00    4.10
  -2  -6  16   29.90    3.70
   2   6  16   31.90    3.50
   2  -6 -16   38.00    4.00
   2   6  16   33.40    4.10
   2  -6 -16   41.30    3.50
  -3  -6 -16   39.10    4.20
  -3   6  16   36.10    4.00
   3  -6  16   32.60    3.60
  -3   6  16   33.50    3.60
   3   6 -16   43.30    4.50
   3  -6 -16   36.20    3.90
  -3  -6  16   31.20    4.00
  -3   6 -16   41.00    5.10
   3   6  16   32.20    4.00
  -3   6 -16   32.90    4.00
  -3   6 -16   39.90    4.20
   3  -6 -16   37.40    3.90
   3   6  16   34.70    3.70
  -4   6  16   26.30    3.50
  -4  -6 -16   28.20    3.70
   4   6 -16   28.20    3.80
   4  -6  16   23.70    3.20
  -4   6 -16   29.70    3.80
  -4   6 -16   35.10    4.10
   4  -6 -16   27.80    3.60
   4   6  16   24.90    3.50
   4  -6 -16   27.40    3.60
   4   6  16   32.30    4.20
  -4  -6  16   24.30    3.60
   5  -6  16   12.00    2.40
   5   6 -16   10.20    2.50
  -5  -6 -16    9.00    2.40
  -5   6  16   13.10    2.50
   5   6  16   10.00    2.60
  -5   6 -16   10.40    2.50
   5   6  16    9.30    2.10
  -5   6 -16    8.80    2.30
   5  -6 -16    8.90    2.40
  -5  -6  16   10.70    2.50
   5   6  16   10.40    2.80
  -6   6  16   23.40    3.50
   6  -6  16   21.70    3.20
  -6  -6 -16   24.30    3.60
   6   6 -16   25.30    3.80
  -6  -6 -16   18.90    3.50
  -6  -6  16   29.00    4.30
   6   6  16   21.70    3.90
   6  -6 -16   25.60    3.80
   6   6  16   20.60    3.10
   6   6  16   18.20    3.40
  -7  -6 -16   25.70    4.20
  -7  -6 -16   25.90    3.90
   7  -6  16   20.90    3.40
  -7   6  16   23.60    3.70
   7   6 -16   21.30    3.80
   7   6  16   19.70    3.20
  -7   6 -16   30.20    4.10
   7   6  16   17.60    4.10
   7  -6 -16   12.60    2.90
  -7  -6  16   18.10    3.50
  -8  -6 -16   -2.00    2.00
   8   6 -16    4.90    2.20
   8  -6  16    0.70    1.30
  -8  -6 -16    3.00    2.30
  -8   6  16    0.60    2.10
  -8   6 -16   -0.60    1.90
   8   6  16    0.20    2.70
   8   6  16    1.10    1.80
   8   6  16    0.30    2.00
   8  -6 -16    5.40    2.50
  -8  -6  16   -0.10    1.90
   0   7  16   -0.30    1.00
   0   7  16   -0.90    0.90
   0   7 -16    1.20    1.50
   0  -7  16    1.40    1.10
   0   7 -16    0.10    2.00
   0  -7  16   -1.20    1.10
   0  -7 -16   -0.40    1.20
  -1   7  16    5.40    1.80
   1   7 -16    1.80    1.50
  -1   7  16    1.50    1.10
   1   7 -16    5.20    2.40
   1  -7  16    3.20    1.30
   1  -7  16    1.90    1.50
  -1  -7 -16    3.50    1.50
  -1  -7  16    2.20    1.40
   1  -7 -16    5.00    1.80
  -1  -7  16    2.60    1.20
  -1   7 -16    2.80    2.30
  -1   7 -16    1.50    1.50
   1   7  16    1.50    1.10
   1   7  16    2.90    1.70
  -2   7  16   28.10    3.70
   2  -7  16   28.80    3.30
   2   7 -16   43.40    5.10
  -2  -7 -16   32.40    3.80
   2   7 -16   26.90    3.80
  -2   7  16   32.60    3.30
   2   7  16   29.40    3.90
  -2   7 -16   38.80    4.30
  -2   7 -16   44.80    5.20
  -2   7 -16   31.90    4.00
   2  -7 -16   29.20    3.60
   2   7  16   25.80    3.10
  -2  -7  16   32.80    3.90
   2  -7 -16   29.00    3.50
  -2  -7  16   31.10    3.30
   3  -7  16    0.90    1.10
  -3  -7 -16    0.10    1.30
  -3   7  16    0.70    1.00
   3   7 -16    0.20    1.30
   3   7 -16    0.40    2.40
  -3   7  16   -0.50    1.10
  -3  -7  16    0.10    1.30
  -3   7 -16   -0.40    1.00
   3  -7 -16   -1.00    1.00
   3   7  16    0.20    1.50
  -3   7 -16    0.80    1.50
  -3   7 -16   -0.60    1.80
   3  -7 -16    2.70    1.60
  -3  -7  16    1.10    1.40
   3   7  16   -0.40    1.20
   4   7 -16   42.40    4.80
  -4  -7 -16   33.50    4.20
   4  -7  16   39.90    4.10
  -4   7 -16   39.30    4.50
  -4   7 -16   35.90    4.30
  -4   7 -16   43.20    5.30
  -4  -7  16   29.90    4.00
   4  -7 -16   34.50    4.10
   4   7  16   33.90    4.50
   4  -7 -16   40.40    4.40
   4   7  16   31.00    3.90
  -5  -7 -16    2.70    1.80
   5   7 -16    1.50    1.70
   5  -7  16    1.30    1.50
  -5  -7 -16    1.60    1.70
  -5   7  16    0.20    1.30
  -5   7 -16    0.90    1.60
  -5   7 -16   -0.60    1.70
  -5  -7  16    1.80    1.60
   5   7  16    0.40    2.00
   5  -7 -16    0.10    1.70
   6   7 -16    1.60    1.70
  -6  -7 -16    2.90    2.10
   6  -7  16    4.10    1.90
  -6   7  16    4.70    2.00
  -6  -7 -16    2.00    2.00
  -6   7 -16    3.30    2.30
  -6   7 -16    4.40    2.40
   6   7  16    5.90    2.60
  -6  -7  16    4.90    2.30
   6   7  16    6.60    2.10
   6  -7 -16    3.30    1.90
  -7   7  16    4.10    2.10
  -7  -7 -16    9.60    2.70
   7   7 -16    4.70    2.10
   7  -7  16    5.90    2.10
  -7  -7 -16    2.60    2.10
   7   7  16   12.10    3.30
  -7  -7  16    3.10    2.10
   7   7  16    2.40    2.00
   7  -7 -16    3.40    2.10
  -8  -7 -16    9.90    3.20
  -8   7  16   14.20    3.70
  -8  -7 -16   19.10    3.90
   8   7 -16   13.30    3.90
   8  -7  16   16.80    3.30
   8   7  16   14.90    3.10
  -8  -7  16   15.60    3.60
   8   7  16   15.50    4.50
   8  -7 -16   14.50    3.90
   0  -8  16   16.60    2.70
   0   8 -16   12.50    2.70
   0   8 -16   20.00    3.70
   0  -8  16   16.00    2.60
   0   8  16   12.60    2.60
   0   8  16   13.80    2.20
   0  -8 -16   17.00    2.70
  -1  -8 -16   40.00    4.50
   1   8 -16   52.79    5.60
   1  -8  16   37.20    4.00
  -1   8  16   42.50    3.40
  -1   8  16   49.20    4.40
   1   8 -16   43.50    4.80
   1   8  16   45.60    5.00
  -1   8 -16   44.10    5.50
   1   8  16   36.90    3.70
   1  -8 -16   39.80    4.40
  -1   8 -16   50.99    5.30
  -1  -8  16   42.70    4.40
  -1  -8  16   45.60    4.40
   2  -8  16   -1.20    1.00
  -2   8  16   -0.60    1.10
  -2   8  16    1.30    1.20
  -2  -8 -16    0.10    1.20
   2   8 -16    0.10    1.90
   2   8 -16    0.20    1.30
   2  -8 -16    4.50    1.80
   2   8  16    2.50    1.60
  -2  -8  16    2.30    1.70
   2  -8 -16    3.30    1.70
  -2   8 -16    2.90    1.60
  -2  -8  16    2.20    1.30
   2   8  16   -1.20    0.90
  -2   8 -16    0.70    1.60
  -2   8 -16    3.20    2.50
   3   8 -16   13.20    3.40
  -3  -8 -16   18.80    3.00
  -3   8  16   15.30    2.40
  -3   8  16   15.90    2.90
   3   8 -16   12.40    3.00
   3  -8  16   12.40    2.50
   3   8  16   11.30    2.40
  -3  -8  16   14.40    3.00
   3   8  16    9.90    2.60
  -3   8 -16   14.10    2.90
   3  -8 -16   13.30    2.80
  -3   8 -16    8.60    2.40
  -3  -8  16   13.30    2.40
  -3   8 -16   14.80    3.30
   3  -8 -16   12.20    2.50
   4   8 -16   -1.60    1.30
  -4  -8 -16   -0.80    1.30
   4  -8  16    3.20    1.50
  -4  -8 -16   -0.30    1.50
  -4   8 -16   -3.20    1.90
  -4   8 -16    2.50    1.90
  -4   8 -16   -1.90    1.40
   4  -8 -16    0.60    1.40
  -4  -8  16   -1.60    1.50
   4   8  16   -1.30    1.60
   4  -8 -16    0.10    1.40
   4   8  16   -1.00    1.50
   5  -8  16   41.60    4.60
  -5  -8 -16   43.70    5.40
   5   8 -16   44.10    5.00
  -5   8  16   42.70    4.70
  -5  -8 -16   47.50    5.00
  -5   8 -16   39.90    4.80
  -5   8 -16   30.40    4.30
   5   8  16   41.90    4.80
  -5  -8  16   39.20    4.90
   5  -8 -16   41.40    4.90
  -6  -8 -16   -0.30    2.10
   6   8 -16    1.30    1.90
  -6   8  16   -0.30    1.20
  -6  -8 -16    0.20    1.70
   6  -8  16    0.10    1.60
  -6   8 -16    1.50    2.00
   6  -8 -16    3.20    2.10
  -6   8 -16   -1.50    1.90
  -6  -8  16    4.40    2.60
   6   8  16   -0.90    2.90
   6   8  16    0.80    2.20
   7   8 -16   25.00    4.10
  -7  -8 -16   30.60    4.80
   7  -8  16   20.10    3.60
  -7  -8 -16   24.00    4.10
  -7   8  16   24.70    4.20
  -7  -8  16   16.20    3.50
   7   8  16   19.00    4.20
   7  -8 -16   21.60    4.20
   7   8  16   28.00    4.00
   0   9  16   -0.90    0.90
   0  -9  16    0.90    1.20
   0   9 -16    1.80    1.50
   0  -9 -16   -0.30    1.30
   0  -9  16    1.80    3.10
   0   9 -16    0.50    1.70
   0   9  16   -0.90    1.10
   1   9 -16    4.60    2.10
  -1   9  16   13.10    2.90
   1   9 -16   12.50    3.10
  -1  -9 -16   14.60    2.70
   1  -9  16   10.20    2.20
  -1   9  16   10.10    1.90
  -1   9 -16    7.50    2.70
   1   9  16   10.90    2.00
  -1  -9  16    8.20    2.30
  -1  -9  16   10.10    2.30
  -1   9 -16   11.10    2.80
   1  -9 -16    5.90    2.10
   1   9  16   10.40    2.70
   2   9 -16   46.80    5.40
   2   9 -16   61.29    6.50
  -2   9  16   46.40    3.60
  -2   9  16   47.00    5.20
  -2  -9 -16   49.60    5.00
   2  -9  16   36.50    4.30
   2   9  16   42.20    5.20
  -2   9 -16   44.00    5.20
  -2  -9  16   49.40    4.80
   2  -9 -16   43.60    4.80
  -2  -9  16   50.09    5.20
  -2   9 -16   55.29    5.70
   2   9  16   44.90    3.80
  -2   9 -16   41.10    5.30
  -3  -9 -16   25.70    3.70
   3   9 -16   22.40    4.20
   3   9 -16   25.20    3.90
   3  -9  16   23.70    3.30
   3   9  16   23.60    3.20
   3  -9 -16   26.40    3.90
  -3  -9  16   26.30    3.30
  -3   9 -16   30.90    4.80
  -3   9 -16   17.70    3.50
   3   9  16   25.60    4.00
   3  -9 -16   30.30    3.90
  -3   9 -16   27.40    4.20
  -3  -9  16   17.70    3.30
  -4  -9 -16    1.50    2.00
   4   9 -16    4.40    2.20
  -4   9  16    2.10    1.60
   4  -9  16   -1.20    1.50
  -4  -9 -16    4.80    2.10
   4  -9 -16    2.00    1.70
  -4   9 -16    3.40    2.90
  -4  -9  16    3.10    2.10
   4  -9 -16    4.20    2.00
  -4   9 -16    4.30    2.30
   4   9  16    2.80    1.70
  -4   9 -16    1.30    1.80
  -5  -9 -16   21.10    4.00
  -5  -9 -16   17.90    3.30
  -5   9  16   18.10    3.20
   5   9 -16   20.40    3.80
   5  -9  16   13.50    3.00
  -5   9 -16   10.40    3.90
   5  -9 -16   18.20    3.40
  -5   9 -16   25.10    3.90
   5   9  16   18.40    3.40
  -5   9 -16   19.20    3.50
  -5  -9  16   19.90    3.80
  -6  -9 -16    1.20    1.80
   6   9 -16    4.00    2.00
   6  -9  16    0.50    1.40
  -6   9  16    0.70    1.50
  -6  -9 -16    1.00    2.10
   6   9  16    1.30    2.70
   6  -9 -16    1.50    2.20
  -6   9 -16    0.40    2.10
  -6  -9  16    3.10    2.70
  -6   9 -16    0.60    2.30
   0  10 -16   72.49    7.30
   0 -10 -16   65.59    5.50
   0 -10  16   71.19    5.30
   0  10  16   61.99    4.30
   0  10  16   60.39    5.60
   0  10 -16   64.29    6.50
  -1  10  16   59.29    4.00
  -1 -10 -16   61.49    5.20
   1  10 -16   62.39    6.60
   1 -10  16   51.89    5.20
  -1  10  16   61.99    5.40
   1  10 -16   58.59    6.00
  -1 -10  16   55.29    5.10
  -1  10 -16   55.19    6.40
  -1 -10  16   59.99    5.00
   1  10  16   49.50    5.70
   1 -10 -16   53.09    5.50
   1  10  16   55.99    4.10
  -1  10 -16   54.59    6.10
   2  10 -16   18.90    3.30
  -2 -10 -16   16.00    3.00
   2  10 -16   19.60    4.10
   2 -10  16   18.30    3.10
  -2  10  16   16.10    2.40
  -2  10 -16   16.20    3.20
  -2  10 -16   15.10    3.80
  -2  10 -16   10.20    2.80
   2  10  16   11.50    2.20
  -2 -10  16   22.60    3.60
  -2 -10  16   11.90    2.70
   2 -10 -16   17.80    3.20
   2  10  16   11.40    2.90
   3  10 -16    5.60    2.40
   3  10 -16   11.60    3.60
  -3 -10 -16   11.00    2.70
   3 -10  16   14.50    2.80
  -3 -10  16   11.80    2.60
   3 -10 -16   10.00    2.70
   3 -10 -16   10.00    3.00
   3  10  16    8.10    2.10
  -3  10 -16   15.70    3.20
  -3  10 -16   12.30    3.60
   3  10  16    7.50    2.80
  -3 -10  16   12.80    3.00
  -3  10 -16   12.10    2.90
  -4 -10 -16   21.60    4.30
   4  10 -16   26.20    4.10
  -4 -10 -16   11.10    3.00
   4  10 -16   23.50    5.00
   4 -10  16   16.40    3.20
  -4  10  16   25.00    3.80
  -4  10 -16   23.50    4.70
  -4 -10  16   16.90    3.60
  -4  10 -16   23.60    4.00
  -4 -10  16   19.40    3.50
   4  10  16   24.20    3.40
   4 -10 -16   28.20    4.00
  -4  10 -16   22.80    4.00
  -5  10  16   17.40    3.20
  -5 -10 -16   14.20    3.40
   5 -10  16   16.90    3.20
   5  10 -16   16.80    3.70
  -5 -10 -16   13.00    3.20
   5  10  16   10.70    3.20
   5 -10 -16   21.20    3.90
  -5 -10  16   17.20    3.90
  -5  10 -16   10.30    3.40
  -5  10 -16   11.70    3.20
  -5  10 -16   13.10    3.90
   0  11  16    1.60    1.20
   0 -11  16   -0.10    1.50
   0 -11 -16   -1.00    1.70
   0  11  16   -2.10    1.70
   0  11 -16    1.80    1.70
   0  11 -16   -4.50    2.10
  -1  11  16   12.40    2.00
  -1  11  16   12.40    3.30
   1  11 -16   12.50    3.20
   1 -11  16    6.00    2.20
  -1 -11 -16   10.20    2.80
   1  11 -16   14.00    3.70
   1 -11 -16   17.10    3.30
   1  11  16   11.60    2.10
   1  11  16   12.70    3.20
  -1  11 -16   11.70    3.80
  -1 -11  16   13.60    2.80
  -1  11 -16   15.50    3.40
   2 -11  16    2.20    1.80
  -2  11  16    2.40    1.30
  -2 -11 -16    0.70    2.10
   2  11 -16   -0.20    2.60
   2  11 -16    0.00    1.90
  -2  11 -16   -2.30    2.30
  -2  11 -16    1.90    2.60
   2  11  16   -2.00    1.60
  -2 -11  16    2.60    2.20
  -2  11 -16    5.10    2.50
  -2 -11  16    1.50    1.60
   2 -11 -16   -1.10    1.60
   2  11  16    3.30    1.50
   3  11 -16   29.90    4.30
  -3 -11 -16   26.60    4.10
   3 -11  16   27.70    3.90
   3  11 -16   31.20    5.20
  -3 -11  16   25.80    4.30
  -3 -11  16   31.70    4.20
  -3  11 -16   23.00    4.30
  -3  11 -16   28.90    5.10
   3  11  16   22.60    3.30
   3 -11 -16   24.20    4.10
   3  11  16   23.70    4.30
  -3  11 -16   21.10    4.50
   4 -11  16    3.70    1.90
  -4  11  16   -0.20    1.40
   4  11 -16    1.70    3.70
  -4 -11 -16   -3.10    2.30
  -4 -11 -16    2.60    3.00
   4  11 -16    3.60    2.30
  -4 -11  16   -0.40    1.90
  -4  11 -16   -0.20    2.90
  -4 -11  16   -0.50    2.20
   4  11  16    1.30    1.60
  -4  11 -16    0.50    2.90
  -4  11 -16   -1.70    2.10
   4 -11 -16    2.30    2.20
   0  12  16   26.60    2.90
   0  12  16   21.80    4.20
   0  12 -16   18.90    3.60
   0 -12  16   29.80    4.10
   0  12 -16   29.80    5.20
   0 -12 -16   25.80    4.20
  -1 -12 -16    0.90    2.30
   1 -12  16    2.30    1.90
  -1  12  16    3.90    1.40
   1  12 -16    3.40    2.10
   1  12 -16   10.90    4.10
   1  12  16    4.50    2.50
  -1  12 -16    4.60    2.00
  -1  12 -16    4.50    3.50
   1  12  16    4.00    1.50
   1 -12 -16    1.50    2.30
  -1 -12  16    4.40    2.10
   2  12 -16   29.40    4.90
   2  12 -16   35.80    6.00
  -2 -12 -16   35.30    5.30
   2 -12  16   38.00    4.80
  -2 -12  16   31.90    4.20
  -2  12 -16   33.50    5.30
   2 -12 -16   25.60    4.40
   2  12  16   30.60    5.00
  -2  12 -16   41.60    5.90
  -2  12 -16   35.40    5.80
   2  12  16   29.60    3.40
   0   0  17    1.90    1.40
   0   0 -17    0.60    0.90
   0   0 -17    0.70    0.80
   0   0  17    2.60    1.40
   1   0  17    1.50    1.10
   1   0 -17    0.70    0.90
  -1   0 -17   -0.30    0.80
  -1   0 -17   -0.10    0.70
   1   0 -17   -0.40    0.80
  -1   0  17    0.20    1.20
  -1   0  17   -0.40    1.10
   1   0  17   -0.10    1.30
   2   0 -17  239.08   11.40
   2   0 -17  248.98   11.80
  -2   0 -17  230.18   11.20
   2   0  17  226.58   11.70
   2   0  17  233.68   12.10
  -2   0  17  236.48   12.00
  -2   0 -17  216.88   11.50
  -2   0  17  215.98   11.80
  -3   0  17   -0.20    1.10
  -3   0 -17   -0.70    0.80
   3   0  17    0.10    0.90
   3   0  17   -0.10    1.00
   3   0 -17   -0.10    0.80
   3   0  17   -0.40    1.60
   3   0 -17   -0.90    0.80
  -4   0  17    2.00    1.30
   4   0  17    3.50    2.10
   4   0  17    0.40    1.20
   4   0  17    2.50    1.50
  -4   0 -17    3.30    1.30
   4   0 -17    1.30    1.10
   4   0 -17    1.10    1.30
   5   0  17   -0.70    1.20
  -5   0  17    1.10    1.10
  -5   0  17   -1.30    1.00
   5   0 -17   -0.10    1.20
   5   0  17   -0.10    1.20
  -5   0 -17    1.00    1.10
  -6   0  17   15.10    2.90
   6   0  17   16.00    2.70
  -6   0  17   13.20    2.80
  -6   0 -17   11.40    2.40
   6   0 -17   12.40    2.50
   7   0 -17    0.50    1.50
   7   0  17   -0.20    1.30
  -7   0 -17   -0.70    1.30
  -7   0  17    0.00    1.30
  -8   0 -17    8.50    2.40
   8   0 -17    9.50    2.60
   8   0  17   12.50    2.60
   9   0 -17   -2.30    1.30
   9   0  17   -0.40    1.70
  -9   0 -17    0.60    1.70
   0   1  17  166.68    9.20
   0  -1  17  177.28    9.50
   0  -1 -17  158.68    8.40
   0   1 -17  160.08    8.60
   0  -1  17  169.48    9.20
   0   1 -17  162.88    8.40
   0   1  17  156.68    9.10
   0  -1 -17  174.78    8.70
   1  -1  17   10.60    2.10
  -1  -1 -17    8.30    1.60
  -1   1  17   10.50    2.30
   1   1 -17    9.10    1.60
  -1  -1 -17    8.40    1.60
   1  -1  17   10.70    2.30
  -1   1  17    8.70    2.00
   1   1 -17    6.10    1.50
   1   1  17   11.80    2.30
  -1  -1  17    8.20    1.90
  -1   1 -17    7.60    1.70
  -1  -1  17   12.40    2.60
   1  -1 -17    6.20    1.50
   1  -1 -17    9.40    1.70
  -1   1 -17    6.40    1.50
   1   1  17    6.40    1.70
   2  -1  17   27.90    3.30
  -2   1  17   25.10    3.40
   2  -1  17   28.40    3.80
  -2  -1 -17   22.60    2.80
   2   1 -17   23.50    2.50
  -2   1  17   22.20    3.10
   2  -1  17   22.00    2.40
   2   1 -17   18.80    2.70
  -2   1 -17   26.40    2.80
  -2   1 -17   25.50    2.70
   2  -1 -17   20.20    2.50
  -2  -1  17   23.60    3.20
   2   1  17   25.60    3.30
   2   1  17   18.90    2.80
   2  -1 -17   24.50    2.80
  -2  -1  17   23.60    3.20
   3  -1  17   45.90    3.50
  -3   1  17   54.99    4.50
   3  -1  17   45.90    3.90
   3   1 -17   50.59    4.00
  -3  -1 -17   46.90    3.80
   3   1 -17   54.29    3.60
  -3   1  17   43.10    4.00
   3  -1 -17   46.60    3.60
  -3   1 -17   47.80    3.70
   3   1  17   58.29    5.30
  -3  -1  17   45.00    4.00
   3  -1 -17   42.20    3.70
   3   1  17   46.40    4.10
   3   1  17   47.40    3.50
   4  -1  17   14.80    2.50
   4  -1  17   10.20    1.90
  -4   1  17   13.10    2.50
   4   1 -17    9.70    2.10
  -4  -1 -17    8.30    2.10
   4  -1 -17    9.00    1.80
   4   1  17   11.80    2.20
   4   1  17    9.80    1.90
   4  -1 -17   11.80    2.40
   4   1  17    7.00    2.40
  -4   1 -17   10.80    2.00
  -4  -1  17    9.70    2.20
  -5   1  17   35.50    3.60
  -5  -1 -17   35.10    3.80
   5   1 -17   35.10    3.90
   5  -1  17   34.90    3.80
  -5   1  17   36.30    4.20
   5   1  17   36.50    3.70
  -5  -1  17   30.60    3.80
   5   1  17   33.50    4.60
   5   1  17   39.90    4.20
  -5   1 -17   29.30    3.40
   5  -1 -17   27.50    3.50
   6  -1  17   27.40    3.50
  -6   1  17   29.70    3.80
  -6  -1 -17   27.80    3.60
   6   1 -17   35.10    4.20
  -6   1  17   28.50    3.50
  -6   1 -17   31.00    3.70
  -6  -1  17   40.30    4.40
   6   1  17   33.80    3.70
   6  -1 -17   27.80    3.70
  -7   1  17   19.60    3.30
   7  -1  17   21.40    3.40
  -7  -1 -17   19.20    3.20
   7   1 -17   23.10    3.60
  -7   1  17   19.20    3.00
   7   1  17   16.60    2.90
  -7   1 -17   18.70    3.10
  -7  -1  17   17.30    3.30
   7  -1 -17   12.70    2.90
   8  -1  17    4.50    2.10
  -8  -1 -17    7.10    2.20
   8   1 -17    7.00    2.30
   8  -1 -17    6.50    2.30
  -8  -1  17   10.10    2.90
   8   1  17    8.40    2.30
  -8   1 -17    9.40    2.60
   9  -1  17   10.70    2.90
  -9  -1 -17   10.90    2.50
   9   1 -17    3.70    2.00
  -9   1 -17    5.50    2.30
   9  -1 -17    6.10    2.50
   9   1  17    6.60    2.60
   0   2 -17    0.80    0.80
   0   2  17   -0.20    1.20
   0   2 -17   -0.60    1.00
   0  -2  17    0.00    1.00
   0   2  17    1.40    1.20
   0  -2 -17   -0.70    0.80
   0  -2 -17   -0.30    0.90
   1   2 -17  126.99    7.40
  -1  -2 -17  129.09    7.40
  -1   2  17  137.19    7.60
   1  -2  17  128.69    6.70
  -1  -2 -17  123.59    6.80
  -1   2  17  138.59    7.70
   1  -2  17  121.19    7.20
   1   2 -17  129.79    6.80
  -1   2 -17  132.89    7.10
   1  -2 -17  130.19    7.20
   1   2  17  129.49    7.60
   1   2  17  115.59    7.40
  -1  -2  17  121.09    7.50
  -1   2 -17  148.79    7.50
   1  -2 -17  127.89    7.20
  -2   2  17   46.70    3.90
   2  -2  17   43.30    3.20
   2   2 -17   40.20    4.10
   2  -2  17   45.70    3.70
  -2  -2 -17   44.00    3.60
  -2   2  17   44.70    4.50
  -2  -2  17   38.60    3.60
   2   2  17   39.40    4.30
  -2   2 -17   46.60    3.60
  -2   2 -17   38.40    3.30
   2  -2 -17   44.80    3.60
   2  -2 -17   41.10    3.40
   2   2  17   37.70    4.20
  -3   2  17    7.90    2.10
  -3   2  17    6.00    1.70
   3   2 -17    4.10    1.50
  -3  -2 -17    4.70    1.50
   3  -2  17    5.30    1.40
   3  -2  17    4.20    1.50
   3  -2 -17    4.10    1.30
  -3  -2  17    7.70    2.00
  -3   2 -17    8.00    1.70
   3  -2 -17    6.80    1.80
  -3   2 -17    5.70    1.60
   3   2  17    7.10    2.20
   3   2  17    7.10    1.90
  -4  -2 -17   78.79    5.60
   4  -2  17   90.99    5.80
   4  -2  17   86.59    5.50
  -4   2  17   88.69    6.00
   4   2 -17   89.39    5.90
  -4  -2  17   72.89    5.70
   4  -2 -17   85.99    5.40
   4   2  17   98.79    6.60
   4   2  17   91.29    5.50
   4  -2 -17   80.09    5.70
  -4   2 -17   84.19    5.40
   4   2  17   85.79    6.00
   5  -2  17   29.90    3.40
  -5  -2 -17   31.10    3.60
   5   2 -17   26.80    3.50
  -5   2  17   36.10    4.10
  -5   2  17   32.40    3.60
   5  -2 -17   32.90    4.00
  -5  -2  17   29.70    4.00
   5   2  17   34.90    4.60
   5   2  17   30.20    3.80
   5   2  17   34.60    3.60
  -5   2 -17   34.10    3.80
  -6   2  17   37.00    4.00
  -6   2  17   30.60    4.00
   6   2 -17   36.70    4.30
  -6  -2 -17   34.70    4.00
   6  -2  17   30.00    3.70
   6  -2 -17   32.10    4.20
   6   2  17   39.40    4.10
  -6   2 -17   38.80    4.20
   6   2  17   36.20    4.30
   6   2  17   41.50    5.60
  -6  -2  17   39.60    4.60
  -7  -2 -17   24.20    3.50
   7   2 -17   32.60    4.30
   7  -2  17   29.60    3.90
  -7   2  17   23.80    3.30
   7   2  17   24.50    3.50
  -7   2 -17   30.60    4.00
  -7  -2  17   18.20    3.40
   7  -2 -17   25.20    3.70
  -8  -2 -17    0.50    1.80
  -8   2  17    2.80    1.90
   8  -2  17    0.10    1.60
   8   2 -17    2.10    1.80
   8   2  17    3.20    1.80
  -8   2 -17    0.30    1.70
  -8  -2  17    0.10    1.60
   8  -2 -17    1.60    1.50
  -9   2  17   19.80    3.80
   9  -2  17   21.60    3.70
   9   2 -17   21.90    3.70
  -9  -2 -17   16.00    4.00
   9   2  17   16.50    3.30
  -9   2 -17   17.50    3.40
   9  -2 -17   14.80    3.30
   0   3  17   16.40    2.60
   0   3  17   15.90    2.60
   0  -3 -17   15.80    2.30
   0  -3 -17   16.10    2.10
   0  -3  17   15.70    2.60
   0   3 -17   13.60    2.30
   1  -3  17   75.59    4.40
  -1   3  17   70.09    5.10
   1  -3  17   66.29    4.80
  -1  -3 -17   77.99    5.10
   1   3 -17   71.59    5.10
  -1   3  17   72.09    5.00
   1   3  17   63.39    5.10
   1  -3 -17   78.09    4.90
  -1  -3  17   73.19    5.10
  -1   3 -17   76.09    4.70
   1  -3 -17   76.59    5.00
  -1   3 -17   77.49    5.10
   1   3  17   70.99    5.10
  -2   3  17   18.10    2.80
  -2   3  17   23.00    3.10
   2  -3  17   29.60    2.90
   2   3 -17   20.60    2.80
  -2  -3 -17   17.70    2.60
   2  -3  17   25.00    3.00
   2   3  17   23.10    3.10
  -2   3 -17   24.30    2.70
   2  -3 -17   27.00    3.00
  -2   3 -17   29.10    3.10
   2  -3 -17   16.20    2.50
   2   3  17   25.20    3.30
  -2  -3  17   22.90    3.00
   3   3 -17   19.20    2.90
   3  -3  17   25.80    2.90
   3  -3  17   17.30    2.40
  -3   3  17   21.60    3.00
  -3   3  17   15.70    2.60
  -3  -3 -17   19.80    2.70
   3   3  17   13.30    2.80
   3   3  17   10.40    2.40
   3  -3 -17   15.20    2.30
  -3  -3  17   21.40    3.00
   3  -3 -17   16.70    2.60
  -3   3 -17   18.70    2.50
  -3   3 -17   15.40    2.50
   4  -3  17    2.30    1.30
  -4  -3 -17    0.00    1.20
  -4   3  17    2.20    1.50
   4   3 -17    3.20    1.40
   4  -3 -17    2.30    1.20
   4   3  17    2.70    1.90
   4   3  17    2.10    1.40
  -4   3 -17    2.30    1.20
  -4   3 -17    0.70    1.20
  -4  -3  17    2.10    1.30
   4   3  17    0.30    1.30
   4  -3 -17    1.40    1.40
   5  -3  17   22.80    2.90
   5   3 -17   21.60    3.20
  -5   3  17   23.70    3.30
  -5  -3 -17   22.40    3.10
  -5   3  17   22.50    3.00
   5   3  17   13.80    2.70
   5   3  17   20.30    3.70
  -5   3 -17   21.10    2.90
   5   3  17   23.60    2.90
  -5  -3  17   19.70    3.20
   5  -3 -17   16.40    2.90
  -6   3  17    5.60    1.90
  -6  -3 -17    6.80    2.10
   6   3 -17    6.90    2.20
  -6   3  17    7.10    2.20
   6  -3  17    3.40    1.70
  -6  -3  17    5.30    2.00
   6   3  17    7.50    2.30
   6  -3 -17    4.10    1.80
  -6   3 -17    2.40    1.60
   6   3  17    5.40    1.90
   6   3  17    3.50    2.30
  -7   3  17   -1.00    1.40
  -7  -3 -17    0.60    1.50
   7   3 -17    3.80    1.90
   7  -3  17    2.40    1.70
  -7  -3  17    1.70    1.80
   7   3  17    4.40    1.90
  -7   3 -17    1.50    1.60
   7  -3 -17    1.70    1.50
   7   3  17    2.40    2.30
   8   3 -17    6.70    2.40
   8  -3  17    5.50    2.30
  -8   3  17    3.00    1.90
  -8  -3 -17    4.60    2.20
  -8   3 -17    5.30    2.30
   8  -3 -17    0.30    1.80
   8   3  17    1.90    1.90
  -8  -3  17    6.80    2.60
   9  -3  17    4.60    2.30
  -9   3  17    5.80    2.50
   9   3 -17    3.00    2.20
  -9  -3 -17    3.50    2.70
   9  -3 -17    4.40    2.10
  -9   3 -17    4.80    2.40
  -9  -3  17    5.00    2.60
   9   3  17    9.40    2.60
   0   4 -17    0.10    1.10
   0  -4 -17    0.20    1.00
   0  -4  17   -0.90    0.80
   0   4  17    1.10    1.20
   0   4  17   -0.30    1.10
   0  -4  17   -0.10    0.90
   0  -4 -17    0.40    1.00
  -1  -4 -17   33.70    3.70
  -1   4  17   33.40    3.70
   1   4 -17   35.00    3.90
   1  -4  17   40.70    3.50
   1  -4  17   36.60    3.00
  -1   4  17   41.60    3.80
   1  -4 -17   28.20    3.30
  -1  -4  17   33.50    3.80
   1  -4 -17   40.40    3.20
   1   4  17   35.10    4.10
  -1   4 -17   34.90    3.70
   1   4  17   33.70    3.70
  -2   4  17    0.70    1.20
  -2   4  17    0.10    1.10
   2   4 -17   -0.40    1.00
   2  -4  17    0.30    1.10
   2  -4  17    0.40    0.90
  -2  -4 -17   -0.60    0.90
   2  -4 -17   -0.60    0.90
  -2   4 -17    1.20    1.20
  -2  -4  17   -0.10    1.10
   2   4  17    2.10    1.50
   2  -4 -17    1.00    1.00
   2   4  17   -1.10    1.20
   3   4 -17   39.70    4.30
  -3   4  17   47.50    3.90
   3  -4  17   44.60    3.50
  -3  -4 -17   40.60    4.30
  -3   4  17   36.80    4.10
   3  -4 -17   48.30    3.80
   3   4  17   35.20    4.20
   3  -4 -17   43.90    4.30
   3   4  17   46.40    4.60
  -3   4 -17   42.40    3.50
  -3   4 -17   45.40    3.80
  -3  -4  17   37.70    4.30
   4  -4  17   40.20    4.00
   4   4 -17   43.90    4.70
  -4  -4 -17   41.80    4.50
  -4   4  17   47.80    4.20
   4  -4 -17   39.20    4.20
  -4  -4  17   39.90    4.40
   4  -4 -17   49.10    4.00
   4   4  17   38.60    4.60
   4   4  17   51.59    4.60
  -4   4 -17   49.80    4.00
  -4   4 -17   51.39    3.80
  -5  -4 -17   55.19    5.40
   5   4 -17   53.09    5.30
   5  -4  17   52.69    4.30
  -5   4  17   52.09    4.40
  -5   4  17   54.79    4.60
   5   4  17   43.70    5.20
   5  -4 -17   44.80    4.90
  -5  -4  17   56.59    4.90
   5   4  17   52.09    4.90
   5   4  17   53.69    4.30
  -5   4 -17   53.79    4.30
  -6  -4 -17   42.10    4.70
   6  -4  17   45.30    4.80
   6   4 -17   42.20    4.80
  -6   4  17   49.80    4.90
  -6   4 -17   46.40    4.50
   6   4  17   45.30    5.50
  -6  -4  17   40.20    5.00
   6   4  17   44.80    4.50
   6  -4 -17   37.10    4.70
   6   4  17   47.20    5.10
   7  -4  17   29.40    4.00
   7   4 -17   28.30    4.00
  -7   4  17   25.10    3.60
  -7  -4 -17   20.90    3.70
   7  -4 -17   28.20    4.20
   7   4  17   31.40    4.40
  -7   4 -17   33.40    4.10
   7   4  17   29.50    3.90
  -7  -4  17   23.10    3.80
   7   4  17   31.40    4.90
  -8   4  17   20.90    3.70
  -8  -4 -17   13.70    3.10
   8  -4  17   19.20    3.40
   8   4 -17   19.90    3.50
   8  -4 -17   17.60    3.50
  -8  -4  17   20.50    4.00
  -8   4 -17   16.50    3.10
   8   4  17   21.70    3.70
   0   5 -17  329.27   15.50
   0   5  17  294.07   15.40
   0  -5  17  311.17   14.50
   0   5  17  309.67   15.00
   0  -5  17  315.37   15.20
   0  -5 -17  292.17   15.10
   1  -5  17   33.00    3.20
  -1   5  17   25.80    3.20
  -1  -5 -17   28.90    3.40
   1   5 -17   29.30    3.70
  -1   5  17   33.20    3.90
   1  -5  17   28.70    3.30
   1   5  17   26.80    3.30
  -1  -5  17   26.10    4.30
  -1  -5  17   24.80    3.30
   1  -5 -17   33.60    3.70
   1   5  17   25.50    3.50
   1  -5 -17   33.70    3.20
  -1   5 -17   26.50    3.50
   2  -5  17   43.70    3.70
  -2   5  17   44.10    4.30
  -2  -5 -17   33.20    3.80
  -2   5  17   40.90    4.40
   2  -5  17   40.20    3.40
   2   5 -17   47.40    4.00
   2  -5 -17   35.90    3.80
  -2  -5  17   46.50    4.10
   2  -5 -17   40.70    3.50
   2   5  17   51.49    4.50
   2   5  17   42.70    4.30
  -2   5 -17   38.30    4.10
   3  -5  17   16.60    2.60
   3   5 -17   19.70    3.10
  -3   5  17   20.50    2.80
  -3  -5 -17   25.90    3.40
  -3   5  17   19.70    3.10
  -3  -5  17   25.60    3.50
   3  -5 -17   20.80    3.10
   3   5  17   15.50    2.90
   3   5  17   27.20    3.50
   3  -5 -17   19.70    2.90
  -3   5 -17   28.30    3.50
  -4   5  17   16.90    2.80
  -4  -5 -17    9.90    2.30
   4   5 -17   16.30    2.80
   4  -5  17   14.40    2.40
  -4   5 -17   10.60    2.30
   4   5  17   16.80    3.00
   4  -5 -17   12.90    2.30
   4   5  17   13.70    2.90
  -4   5 -17   16.40    2.70
   4  -5 -17   17.50    2.80
  -4  -5  17   17.40    3.20
  -5   5  17   14.20    2.60
   5   5 -17   13.90    2.80
  -5   5  17   16.90    3.60
  -5  -5 -17   16.70    2.90
   5  -5  17   17.40    2.80
  -5  -5  17    9.10    2.50
   5   5  17   12.60    3.10
   5  -5 -17   16.00    3.00
  -5   5 -17   14.90    2.60
   5   5  17   11.30    2.40
   5   5  17   15.50    3.00
  -5   5 -17   11.10    2.60
  -5   5 -17   24.30    3.50
   6   5 -17   24.60    3.80
  -6   5  17   25.20    3.60
   6  -5  17   21.00    3.40
  -6  -5 -17   27.10    4.00
   6   5  17   25.10    3.40
   6   5  17   28.30    4.20
   6   5  17   19.00    3.70
   6  -5 -17   18.60    3.20
  -6   5 -17   31.80    3.80
  -6  -5  17   24.80    3.90
   7  -5  17    4.90    2.00
   7   5 -17    5.50    2.10
  -7  -5 -17    2.10    2.10
  -7   5  17    3.60    2.00
  -7  -5  17    2.90    1.90
   7   5  17    3.70    2.30
   7  -5 -17    2.20    2.10
   7   5  17    3.70    2.00
   7   5  17    5.40    3.20
  -7   5 -17    4.10    1.90
   8   5 -17    1.00    1.90
  -8   5  17    7.40    2.60
   8  -5  17    1.00    1.90
  -8  -5 -17    1.30    2.10
   8   5  17    1.90    6.40
   8  -5 -17    4.60    2.00
   8   5  17    6.10    3.10
  -8  -5  17    1.60    1.90
   8   5  17    4.30    2.10
  -8   5 -17    0.30    1.70
   0  -6  17    1.60    1.30
   0   6  17    1.30    1.30
   0  -6  17    0.50    0.90
   0   6 -17    0.20    1.40
   0  -6 -17    0.20    1.10
   0   6 -17    2.20    2.40
   0   6  17   -0.30    0.90
   1   6 -17   24.60    4.50
  -1   6  17   26.50    3.00
   1   6 -17   23.50    3.40
   1  -6  17   24.60    3.10
  -1   6  17   27.80    3.70
  -1  -6 -17   24.50    3.30
   1  -6  17   26.60    3.10
   1  -6 -17   30.10    3.20
  -1   6 -17   22.60    3.40
  -1  -6  17   25.50    3.30
  -1  -6  17   23.50    2.80
  -1   6 -17   25.70    4.00
   1  -6 -17   19.00    2.90
   1   6  17   26.40    3.20
   1   6  17   24.60    3.40
  -2   6  17    8.30    2.00
  -2  -6 -17    7.10    2.10
   2  -6  17    8.80    1.80
   2   6 -17    5.90    1.80
  -2   6  17    8.50    2.10
   2  -6 -17    8.20    1.90
   2  -6 -17    6.60    1.70
   2   6  17    3.80    1.70
  -2  -6  17    7.50    2.10
  -2   6 -17    7.10    3.10
  -2   6 -17    4.50    1.60
   2   6  17    6.00    2.00
  -3   6  17   41.90    4.70
   3   6 -17   45.30    4.80
  -3   6  17   41.60    4.20
   3  -6  17   35.80    3.90
  -3  -6 -17   41.30    4.30
  -3   6 -17   39.90    4.30
  -3  -6  17   40.30    4.70
  -3   6 -17   36.90    4.10
   3   6  17   46.70    4.70
   3  -6 -17   45.80    4.50
   3   6  17   44.90    4.90
   3  -6 -17   33.10    4.00
  -4   6  17    2.50    1.50
  -4  -6 -17    5.30    2.00
   4   6 -17    1.10    1.30
   4  -6  17    2.80    1.60
  -4  -6  17    4.30    1.90
   4   6  17    3.00    1.80
   4  -6 -17    5.20    1.80
   4  -6 -17   -0.80    1.10
  -4   6 -17    0.40    1.40
  -4   6 -17    2.70    1.70
   4   6  17    5.40    2.00
  -5  -6 -17   23.70    3.60
   5  -6  17   23.00    3.40
  -5   6  17   25.00    3.40
   5   6 -17   22.60    3.70
  -5   6 -17   25.50    3.60
   5   6  17   19.10    3.50
   5  -6 -17   29.50    3.90
  -5  -6  17   14.90    3.20
  -5   6 -17   32.00    3.80
   5   6  17   22.30    3.90
   6  -6  17    7.90    2.40
  -6   6  17    8.80    2.50
   6   6 -17    3.80    1.90
  -6  -6 -17   13.20    3.00
   6   6  17   12.50    2.60
   6   6  17    9.60    3.00
   6   6  17   12.20    3.00
   6  -6 -17    7.80    2.40
  -6  -6  17   10.00    2.90
   7   6 -17   35.40    4.60
  -7   6  17   24.80    3.90
  -7  -6 -17   29.60    4.40
   7  -6  17   34.40    4.40
   7   6  17   23.60    4.50
   7   6  17   33.40    4.10
  -7  -6  17   20.80    4.00
   7   6  17   31.00    4.60
   7  -6 -17   27.90    4.30
   8   6 -17    2.30    2.00
  -8  -6 -17    1.20    2.60
  -8   6  17    2.00    2.20
   8  -6  17    4.10    2.00
  -8  -6  17    1.00    2.40
   8   6  17    3.80    2.90
   8  -6 -17   -1.10    2.00
   8   6  17    1.30    2.00
   8   6  17    4.90    3.70
  -8   6 -17    0.00    2.50
   0  -7 -17   94.29    6.50
   0   7 -17  108.09    7.60
   0   7  17   94.39    6.60
   0  -7  17   98.59    6.00
   0  -7  17   93.19    6.30
   0   7 -17   90.99    6.60
   0   7  17   90.49    5.80
   1  -7  17   49.70    4.20
   1  -7  17   54.69    4.10
  -1   7  17   48.50    4.50
   1   7 -17   45.60    5.40
  -1   7  17   49.00    3.80
   1   7 -17   45.50    4.90
  -1  -7 -17   51.49    4.90
   1   7  17   48.80    3.90
  -1  -7  17   41.20    4.50
  -1   7 -17   43.30    4.70
  -1  -7  17   45.00    3.70
   1  -7 -17   50.39    5.00
   1   7  17   49.20    4.50
  -1   7 -17   49.30    5.70
  -2   7  17   54.19    4.10
  -2   7  17   48.60    4.60
   2  -7  17   48.40    4.00
  -2  -7 -17   47.00    4.80
   2   7 -17   54.29    5.50
  -2  -7  17   56.29    4.70
   2   7  17   51.09    5.40
  -2   7 -17   47.50    5.60
   2  -7 -17   43.70    4.60
  -2  -7  17   53.29    4.10
  -2   7 -17   47.70    4.90
   2  -7 -17   47.20    4.10
   2   7  17   44.50    4.40
   3   7 -17   27.70    3.70
  -3   7  17   24.20    3.50
  -3   7  17   22.10    2.90
   3  -7  17   23.50    3.20
  -3  -7 -17   28.30    3.80
   3   7  17   17.90    3.20
  -3   7 -17   30.10    3.90
  -3  -7  17   20.10    3.50
  -3   7 -17   30.80    4.00
   3  -7 -17   24.00    3.30
   3  -7 -17   21.90    3.30
  -3   7 -17   26.70    4.50
   3   7  17   22.20    3.10
   4   7 -17    7.10    2.40
   4  -7  17   11.20    2.50
  -4  -7 -17    8.80    2.50
   4   7  17   12.60    2.80
   4  -7 -17   12.20    2.50
  -4   7 -17   10.70    2.70
   4  -7 -17    9.40    2.20
  -4  -7  17    8.80    2.50
   4   7  17   11.10    2.60
  -4   7 -17    8.70    2.40
   5   7 -17   22.80    3.60
  -5  -7 -17   14.30    3.10
  -5   7  17   17.60    3.20
   5  -7  17   13.10    2.70
   5  -7 -17   15.70    3.00
  -5  -7  17   12.00    2.90
   5   7  17   19.40    3.70
  -5   7 -17   20.90    3.60
  -5   7 -17   20.80    3.60
   5   7  17   15.20    3.20
  -6  -7 -17   49.10    5.50
   6   7 -17   58.29    6.00
  -6   7  17   49.00    5.30
   6  -7  17   48.90    5.20
   6   7  17   54.39    6.10
  -6   7 -17   46.80    5.60
   6  -7 -17   50.19    5.50
  -6   7 -17   44.20    5.70
  -6  -7  17   44.80    5.50
  -7  -7 -17   -0.80    2.00
   7   7 -17   -0.60    1.80
   7  -7  17   -0.40    1.40
  -7   7  17   -0.70    2.10
   7  -7 -17    0.80    1.90
   7   7  17   -0.10    2.90
   7   7  17   -0.90    2.30
  -7  -7  17    1.50    2.10
   7   7  17    1.30    1.90
   0  -8 -17   -0.30    1.30
   0  -8  17   -1.00    1.10
   0   8 -17    1.10    2.20
   0  -8  17   -1.60    1.10
   0   8 -17    1.40    1.60
   0   8  17   -0.20    1.20
   0   8  17    0.40    1.00
   1  -8  17    0.90    1.30
  -1   8  17    2.90    1.30
   1   8 -17    1.10    1.60
  -1  -8 -17    1.40    1.50
   1   8 -17   -0.50    2.00
  -1   8  17    1.00    1.40
   1   8  17    0.90    1.10
  -1  -8  17   -1.30    1.10
  -1   8 -17    1.30    1.70
  -1  -8  17    1.90    1.60
  -1   8 -17    3.40    2.40
   1  -8 -17    1.70    1.60
   1   8  17    2.00    1.60
  -2   8  17    2.60    1.40
   2  -8  17    1.80    1.40
   2   8 -17    4.80    1.90
  -2   8  17    0.80    1.50
   2   8 -17    0.00    2.40
  -2  -8 -17    5.00    1.90
  -2   8 -17    2.00    1.80
  -2   8 -17    1.90    2.00
   2   8  17    3.40    1.80
  -2  -8  17    0.30    1.40
  -2   8 -17    3.40    2.50
   2  -8 -17    2.90    1.80
  -2  -8  17    2.50    1.70
   2  -8 -17    2.50    2.00
   2   8  17    4.20    1.70
   3  -8  17   11.30    2.40
  -3   8  17   10.10    2.20
  -3   8  17    8.60    2.60
  -3  -8 -17    9.40    2.50
   3   8 -17    8.40    2.70
  -3   8 -17    8.30    3.10
  -3   8 -17    9.90    2.60
   3  -8 -17   11.80    2.60
   3  -8 -17    9.00    2.30
   3   8  17   12.00    2.80
  -3   8 -17    8.20    2.50
   3   8  17   11.60    2.20
  -3  -8  17   10.40    2.50
   4  -8  17    0.90    1.50
   4   8 -17    2.50    1.70
  -4  -8 -17    0.80    1.70
   4  -8 -17    1.00    1.60
  -4   8 -17   -4.80    4.50
   4  -8 -17    2.80    1.90
  -4   8 -17    1.80    1.80
  -4   8 -17    1.90    1.90
  -4  -8  17    1.40    1.80
   4   8  17    1.60    1.90
   4   8  17   -1.00    1.70
   5   8 -17   23.50    3.90
  -5  -8 -17   14.50    3.20
   5  -8  17   15.50    2.90
  -5   8  17   16.90    3.10
  -5   8 -17   17.40    3.40
  -5  -8  17   13.80    3.30
   5  -8 -17   25.60    3.90
   5   8  17   17.90    3.40
  -5   8 -17   16.60    3.40
   5   8  17   17.70    3.40
  -6  -8 -17    6.00    2.70
   6   8 -17    6.60    2.70
  -6   8  17    5.90    2.30
   6  -8  17    8.50    2.50
   6   8  17   10.10    3.10
  -6   8 -17    8.40    3.00
   6  -8 -17    7.40    2.60
   6   8  17    7.90    3.10
  -6  -8  17    4.30    2.80
  -6   8 -17    7.30    2.70
  -7  -8 -17   10.80    3.30
   7   8 -17   15.30    3.60
  -7   8  17    6.40    3.20
  -7  -8 -17    8.30    3.30
   7  -8  17    5.50    2.50
   7  -8 -17    9.90    3.40
   7   8  17    5.70    3.70
  -7  -8  17   10.80    3.10
   7   8  17   15.40    4.20
   0   9 -17   33.20    4.80
   0  -9  17   27.80    3.50
   0   9  17   30.80    4.20
   0  -9 -17   30.80    3.90
   0   9 -17   25.30    4.10
   0   9  17   29.60    3.20
  -1  -9 -17    7.40    2.30
   1   9 -17    1.10    1.60
   1  -9  17    5.50    2.00
   1   9 -17    8.30    3.00
  -1   9  17    7.80    1.70
  -1   9  17    5.00    2.00
   1   9  17    3.00    1.50
  -1   9 -17    8.30    3.10
  -1  -9  17    6.00    2.20
  -1   9 -17    6.60    2.30
   1   9  17    5.80    2.30
   1  -9 -17    7.40    2.40
  -1  -9  17    4.70    1.80
  -2   9  17    5.50    2.20
  -2  -9 -17    3.10    1.80
   2  -9  17    7.20    2.10
   2   9 -17    1.90    1.80
   2   9 -17    4.90    2.80
  -2   9  17    1.90    1.30
   2   9  17    2.20    1.80
  -2   9 -17    1.90    1.80
  -2   9 -17    4.20    2.50
  -2   9 -17    0.90    2.10
   2   9  17    4.50    1.80
  -2  -9  17    4.20    1.70
  -2  -9  17    5.70    2.20
   2  -9 -17    2.20    1.70
  -3  -9 -17   11.50    2.70
   3   9 -17    5.80    5.00
   3  -9  17   10.50    2.40
   3   9 -17   11.00    2.90
  -3   9 -17    8.90    2.90
   3  -9 -17   10.10    2.40
   3   9  17   10.20    2.30
  -3   9 -17   10.60    2.90
   3  -9 -17    4.70    2.00
  -3  -9  17   12.40    2.90
   3   9  17    3.00    1.90
  -3  -9  17   11.90    3.00
  -3   9 -17   13.00    3.70
  -4  -9 -17   11.30    2.80
   4   9 -17    9.80    2.80
   4  -9  17    9.00    2.40
  -4  -9  17    8.70    2.60
   4   9  17    9.20    2.90
  -4   9 -17    8.10    2.60
  -4   9 -17    8.50    2.40
   4   9  17   12.30    2.90
  -4   9 -17    9.40    3.90
   4  -9 -17    9.80    2.70
   4  -9 -17    2.80    2.10
   5   9 -17    6.60    2.50
  -5   9  17    6.90    2.30
  -5  -9 -17    5.80    2.70
   5  -9  17    1.80    1.90
   5  -9 -17    6.00    2.50
   5   9  17    9.30    2.90
  -5   9 -17    1.60    2.00
   5   9  17    1.40    2.20
  -5   9 -17    5.90    2.70
  -5  -9  17    3.00    2.40
  -6  -9 -17    5.90    2.80
  -6  -9 -17   12.80    3.20
   6   9 -17   16.10    3.50
   6  -9  17    9.70    2.60
  -6   9  17    7.80    2.50
   6   9  17    3.60    3.30
  -6   9 -17    4.00    2.30
   6  -9 -17    7.50    2.80
  -6  -9  17    5.90    3.10
  -6   9 -17   10.10    3.20
   6   9  17    9.90    3.50
   0  10 -17    0.60    1.60
   0 -10  17    1.20    1.60
   0  10  17   -1.00    1.50
   0  10 -17   -0.30    2.30
   0 -10 -17    0.30    1.70
   0  10  17   -1.30    1.10
   1  10 -17    2.20    2.60
  -1 -10 -17    2.70    2.00
   1  10 -17    2.30    1.90
  -1  10  17    5.10    2.30
  -1  10  17    1.20    1.30
   1 -10  17    4.50    2.00
   1 -10 -17    1.50    1.80
  -1 -10  17    3.00    2.00
  -1  10 -17    4.20    2.10
   1  10  17    3.50    2.40
  -1 -10  17    5.00    2.30
  -1  10 -17    1.80    2.70
   1  10  17    2.10    1.30
   2  10 -17    1.20    2.80
  -2  10  17    3.30    1.50
   2  10 -17   -1.30    1.60
  -2 -10 -17    2.40    2.00
   2 -10  17    0.70    1.40
  -2 -10  17    1.20    1.90
  -2  10 -17    5.00    2.40
  -2  10 -17    0.10    1.50
  -2  10 -17   -0.10    2.50
   2  10  17    1.90    1.50
   2  10  17    3.00    2.10
   2 -10 -17    1.90    1.80
  -2 -10  17    1.60    1.80
   3 -10  17   17.10    3.20
   3  10 -17   11.90    3.20
  -3 -10 -17   18.80    3.40
   3  10 -17   19.30    4.60
  -3  10 -17   14.20    3.60
  -3  10 -17   24.80    4.70
  -3 -10  17   10.30    3.00
   3 -10 -17   15.50    3.30
   3  10  17   11.50    3.10
  -3 -10  17   20.80    3.60
  -3  10 -17   15.90    3.40
   3  10  17   15.50    2.60
  -4  10  17    9.90    2.60
   4 -10  17   12.70    2.80
  -4 -10 -17   19.60    3.60
   4  10 -17   24.10    4.00
  -4  10 -17   13.90    3.40
  -4  10 -17    8.80    3.60
  -4 -10  17   17.50    3.60
   4  10  17   13.10    2.80
   4  10  17   17.00    3.40
   4 -10 -17   16.40    3.40
  -4  10 -17   24.30    4.40
  -5 -10 -17   10.50    3.10
   5 -10  17    8.50    2.60
  -5  10  17    9.10    2.80
   5  10 -17   11.60    2.80
   5  10  17    7.00    3.40
   5 -10 -17    5.90    2.70
  -5 -10  17    7.20    3.30
   5  10  17    7.30    3.20
  -5  10 -17    2.50    2.40
  -5  10 -17    7.20    3.20
   0 -11  17   37.10    4.70
   0  11  17   42.30    3.90
   0  11 -17   52.79    6.50
   0 -11 -17   41.90    5.00
   0  11 -17   37.20    5.00
   0  11  17   48.30    5.80
  -1  11  17   23.50    4.30
   1  11 -17   37.10    5.60
  -1 -11 -17   31.80    4.40
  -1  11  17   36.40    3.40
   1  11 -17   24.50    4.10
   1 -11  17   25.30    3.80
  -1 -11  17   32.00    4.20
  -1  11 -17   36.50    5.50
  -1  11 -17   35.90    4.90
   1  11  17   27.30    4.50
   1 -11 -17   34.60    4.50
   1  11  17   30.40    3.30
  -2  11  17   22.30    2.70
   2  11 -17   21.50    4.70
   2  11 -17   22.40    3.90
  -2 -11 -17   17.20    3.60
   2 -11  17   12.30    3.00
   2  11  17   15.50    3.50
  -2 -11  17   15.20    3.40
   2  11  17   19.10    2.80
  -2  11 -17   22.30    4.70
  -2 -11  17   18.50    3.30
  -2  11 -17   15.50    3.80
   2 -11 -17   20.40    3.70
  -2  11 -17   18.80    4.20
   3  11 -17   11.80    4.20
   3 -11  17    6.40    2.60
  -3 -11 -17    7.20    2.80
   3  11 -17   14.70    3.40
  -3  11 -17   12.20    3.90
  -3  11 -17    7.20    3.00
   3 -11 -17    7.00    3.00
   3  11  17   11.30    2.30
  -3  11 -17   11.80    3.90
   3  11  17   14.70    3.30
  -3 -11  17    8.00    3.10
  -3 -11  17    8.80    2.80
   4  11 -17   -0.30    1.80
   4 -11  17    3.60    2.20
  -4 -11 -17    1.70    2.80
  -4  11  17    1.00    2.00
  -4  11 -17    1.30    3.70
  -4  11 -17    2.70    2.80
  -4 -11  17    1.30    2.90
   0 -12  17    1.10    1.60
   0  12  17   -0.40    1.20
   0  12 -17   -0.50    3.10
   0 -12 -17    0.20    2.40
   0  12  17    1.60    2.60
   0  12 -17   -0.30    1.70
  -1 -12 -17   -4.30    2.00
   1  12 -17    0.30    3.50
   1  12 -17   -1.20    1.70
  -1  12  17    0.60    1.30
   1 -12  17   -2.50    1.60
  -1  12 -17   -1.60    3.10
   1 -12 -17   -0.50    2.20
   1  12  17   -0.30    1.30
   1  12  17    0.00    2.10
  -1 -12  17   -0.60    1.50
  -1  12 -17    1.80    1.90
   0   0 -18   99.09    5.70
   0   0 -18   88.19    5.60
   0   0  18   80.59    5.60
   0   0  18   92.59    6.00
  -1   0  18   -0.30    0.90
   1   0 -18    0.60    1.00
  -1   0 -18   -1.20    0.80
  -1   0 -18    1.00    1.10
   1   0  18   -0.60    1.00
   1   0  18    0.90    1.40
  -1   0  18   -1.40    1.30
   1   0 -18   -0.20    0.80
   2   0 -18  430.86   19.50
  -2   0  18  460.35   21.50
   2   0  18  446.66   21.70
   2   0  18  462.55   21.40
  -2   0  18  441.36   21.40
   2   0 -18  398.36   19.70
  -2   0 -18  454.45   19.40
  -2   0 -18  412.86   19.70
   3   0  18    2.00    1.40
  -3   0 -18   -0.50    0.80
   3   0  18   -1.00    1.10
   3   0 -18    0.30    0.90
   3   0 -18    1.40    1.20
  -3   0  18   -0.20    1.10
   3   0  18   -0.30    1.40
   4   0 -18   48.50    4.40
   4   0  18   64.29    4.50
  -4   0  18   74.89    5.40
   4   0 -18   67.09    4.40
  -4   0 -18   68.49    4.70
   4   0  18   61.19    4.90
   5   0  18   -0.10    1.10
  -5   0  18   -1.40    0.80
  -5   0  18    2.20    1.40
   5   0 -18    0.70    1.40
  -5   0 -18    0.70    1.00
   5   0  18   -1.60    1.30
  -6   0 -18   27.50    3.60
  -6   0  18   30.20    4.20
   6   0  18   43.50    4.40
   6   0 -18   33.10    4.20
   7   0 -18   -1.20    1.20
  -7   0 -18    0.10    1.60
  -7   0  18   -0.30    1.50
   7   0  18    0.00    1.50
  -8   0 -18   17.50    3.30
   8   0 -18   27.50    4.20
   8   0  18   22.80    3.60
  -9   0 -18    1.40    1.70
   9   0 -18   -1.70    1.50
   9   0  18   -1.70    1.80
   0   1  18    1.90    1.40
   0   1 -18   -0.30    0.80
   0   1 -18    2.60    1.20
   0  -1 -18    1.60    1.00
   0  -1  18    1.30    1.10
   0  -1 -18   -0.70    0.80
   0   1  18    0.60    1.30
   0  -1  18    0.80    1.40
   1   1 -18   13.70    2.00
  -1  -1 -18   11.80    2.00
  -1   1  18   16.10    2.70
   1   1 -18    9.20    1.80
  -1  -1 -18   14.60    2.10
  -1   1  18    9.90    2.00
   1  -1  18   16.90    3.00
   1  -1  18   17.60    2.60
   1   1  18   17.70    2.90
   1  -1 -18   13.90    2.10
   1   1  18   13.10    2.50
  -1  -1  18   15.40    3.00
  -1   1 -18   11.70    1.90
   1  -1 -18   15.50    2.20
  -1   1 -18   12.10    2.00
  -1  -1  18   12.20    2.30
  -2  -1 -18   49.50    4.00
   2   1 -18   57.69    3.90
   2   1 -18   65.29    4.50
   2  -1  18   50.39    4.40
  -2   1  18   50.69    4.50
   2  -1  18   74.19    5.60
  -2   1  18   69.69    5.10
  -2  -1  18   50.99    4.60
  -2   1 -18   50.09    4.00
   2  -1 -18   59.59    4.30
   2   1  18   66.59    5.10
  -2   1 -18   63.99    4.20
   2   1  18   62.09    4.80
  -2  -1  18   63.99    5.00
   2  -1 -18   55.09    4.00
  -3  -1 -18   89.29    5.80
   3   1 -18   93.59    5.50
  -3   1  18   94.19    6.50
   3  -1  18  100.69    5.70
   3  -1  18   97.69    6.20
  -3   1  18  101.89    6.60
   3   1 -18   84.89    5.80
   3   1  18   94.39    6.40
  -3   1 -18   87.49    5.60
  -3  -1  18   82.19    6.10
   3  -1 -18   88.19    5.40
   3  -1 -18   85.39    5.70
   3   1  18  103.19    6.80
  -4  -1 -18   89.09    5.90
   4  -1  18   93.39    6.20
   4   1 -18   81.09    5.90
   4  -1  18   86.89    5.70
  -4   1  18   86.19    6.30
  -4  -1  18  101.99    6.60
   4   1  18   96.09    6.50
   4  -1 -18   89.19    5.60
  -4   1 -18   99.49    6.00
   4  -1 -18   87.89    6.10
   4   1  18   91.99    6.70
   4   1  18  100.19    5.90
  -5   1  18  114.09    7.70
  -5   1  18  121.19    7.20
   5  -1  18  122.99    7.30
   5   1 -18  118.19    7.40
   5   1  18  123.49   10.30
  -5   1 -18  122.29    7.30
   5   1  18  125.79    7.30
   5  -1 -18  113.59    7.40
   5   1  18  132.79    7.90
  -5  -1  18  116.69    7.80
   6   1 -18   19.80    3.20
  -6  -1 -18   19.70    3.10
  -6   1  18   18.70    3.10
   6  -1  18   20.50    3.10
  -6   1  18   24.70    3.20
   6  -1 -18   18.90    3.30
  -6   1 -18   20.50    3.20
  -6  -1  18   15.50    3.10
   6   1  18   22.70    3.00
   7   1 -18   81.09    6.40
   7  -1  18   87.09    6.30
  -7  -1 -18   83.99    6.20
  -7   1  18   79.89    5.90
  -7   1  18   76.99    6.50
  -7   1 -18   75.09    6.00
  -7  -1  18   83.59    6.60
   7  -1 -18   84.69    6.40
   7   1  18   84.79    6.20
  -8  -1 -18   22.10    3.60
   8  -1  18   25.00    4.00
   8   1 -18   27.40    4.10
  -8   1 -18   20.80    3.50
  -8  -1  18   26.60    4.30
   8   1  18   25.60    3.70
   8  -1 -18   27.70    4.20
   9  -1  18   45.60    5.40
   9   1 -18   42.30    5.40
  -9  -1 -18   50.49    5.80
   9   1  18   35.00    4.80
   9  -1 -18   51.29    6.00
  -9   1 -18   42.30    5.30
   0  -2  18  174.68    9.60
   0   2 -18  168.68    8.60
   0   2  18  170.38    9.70
   0   2 -18  169.58    9.10
   0  -2 -18  169.08    8.70
   0  -2 -18  170.38    9.10
   0   2  18  176.88    9.80
  -1   2  18   21.70    3.00
  -1  -2 -18   20.40    2.70
  -1  -2 -18   26.20    3.00
   1  -2  18   22.00    3.00
  -1   2  18   21.90    3.10
   1   2 -18   24.30    3.10
   1  -2 -18   20.20    2.70
   1  -2 -18   25.00    2.90
  -1   2 -18   22.50    2.60
   1   2  18   22.50    3.20
  -1  -2  18   22.90    3.00
  -1   2 -18   25.80    3.00
   1   2  18   27.70    3.40
   2  -2  18   91.29    6.00
   2   2 -18   80.99    5.70
   2  -2  18   88.89    5.30
  -2  -2 -18   83.69    5.70
  -2   2  18  109.49    6.50
  -2   2  18   92.59    6.20
  -2  -2  18   78.29    5.90
   2   2  18  100.39    6.50
  -2   2 -18   90.29    5.50
   2  -2 -18   93.89    5.70
   2   2  18   89.89    6.30
   2  -2 -18   92.99    5.70
  -2   2 -18   93.99    5.60
   3  -2  18   35.10    3.80
  -3  -2 -18   28.90    3.40
  -3   2  18   36.30    4.10
  -3   2  18   40.30    4.50
   3  -2  18   38.30    3.20
   3   2 -18   35.80    3.90
  -3  -2  18   42.00    4.50
  -3   2 -18   30.90    3.30
   3  -2 -18   32.90    3.70
   3   2  18   37.60    4.50
  -3   2 -18   38.20    3.30
   3   2  18   41.40    4.40
   3  -2 -18   39.50    3.80
  -4   2  18  271.57   14.50
  -4  -2 -18  278.37   14.10
   4  -2  18  276.37   13.80
   4  -2  18  281.97   14.20
   4   2 -18  275.57   14.20
  -4   2 -18  287.07   13.80
   4  -2 -18  268.87   14.00
   4  -2 -18  274.37   13.70
   4   2  18  306.77   15.20
   4   2  18  301.37   14.50
  -4  -2  18  272.47   14.60
   4   2  18  288.37   14.70
   5  -2  18    5.00    1.70
  -5   2  18    4.80    1.80
  -5  -2 -18    5.30    1.80
  -5   2  18    2.80    1.50
   5   2 -18    1.70    1.50
   5   2  18    3.90    1.70
  -5   2 -18    4.50    1.70
  -5  -2  18    2.60    1.80
   5   2  18    2.30    2.20
   5   2  18    3.60    1.60
   5  -2 -18    1.80    1.40
  -6   2  18   32.80    3.80
   6   2 -18   29.30    3.90
  -6   2  18   40.70    4.60
  -6  -2 -18   35.00    4.20
   6  -2  18   31.90    3.90
   6   2  18   36.40    3.90
  -6  -2  18   31.00    4.30
   6  -2 -18   31.10    3.90
   6   2  18   28.20    4.00
  -6   2 -18   29.20    3.80
  -7   2  18    7.80    2.30
  -7  -2 -18    6.90    2.30
   7   2 -18    6.10    2.10
   7  -2  18    4.40    2.10
  -7  -2  18    4.70    2.30
   7  -2 -18    4.30    2.00
  -7   2 -18   14.50    2.90
   7   2  18    8.70    2.30
   8  -2  18    5.40    2.20
   8   2 -18    3.70    2.30
  -8  -2 -18    8.60    2.40
  -8   2  18    5.50    2.50
  -8  -2  18    6.40    2.70
   8  -2 -18    8.30    2.60
   8   2  18    6.50    2.30
  -8   2 -18    5.50    2.30
  -9  -2 -18    8.30    3.50
   9  -2  18    9.50    3.10
   9   2 -18    8.20    2.60
   9  -2 -18   13.80    3.20
  -9   2 -18    8.30    2.70
   9   2  18    9.00    2.60
   0   3  18    0.50    1.00
   0  -3 -18    2.00    1.00
   0   3  18    1.30    1.30
   0  -3  18    0.10    1.00
   0   3 -18    0.70    1.20
   0  -3 -18    0.00    0.70
   1  -3  18   23.10    3.00
  -1   3  18   14.60    2.60
   1   3 -18   17.10    2.60
  -1   3  18   22.80    3.10
  -1  -3 -18   19.30    2.80
   1  -3 -18   20.70    2.60
   1   3  18   15.90    2.70
   1  -3 -18   15.50    2.30
  -1  -3  18   20.80    3.00
  -1   3 -18   17.50    2.50
   1   3  18   19.80    3.00
   2   3 -18   56.29    4.60
  -2   3  18   61.49    4.80
  -2  -3 -18   55.99    4.50
  -2   3  18   58.39    4.70
   2  -3  18   51.69    3.80
   2  -3  18   56.29    4.40
   2   3  18   56.29    4.80
  -2  -3  18   56.79    4.60
   2  -3 -18   63.89    4.50
   2   3  18   54.39    4.70
  -2   3 -18   66.29    4.40
  -2   3 -18   66.49    4.60
   2  -3 -18   61.59    4.50
  -3   3  18  118.79    7.50
  -3   3  18  111.49    7.30
  -3  -3 -18  111.89    7.10
   3   3 -18  109.19    7.20
   3  -3  18  130.39    7.20
   3  -3  18  113.89    6.70
  -3  -3  18  108.59    7.30
   3   3  18  116.09    7.50
   3   3  18  122.49    7.70
  -3   3 -18  125.79    6.80
   3  -3 -18  116.19    7.00
   3  -3 -18  109.59    6.80
  -3   3 -18  124.69    7.00
   4  -3  18   33.60    3.50
  -4  -3 -18   34.00    4.00
  -4   3  18   36.90    4.30
   4   3 -18   44.90    4.60
  -4   3 -18   26.90    3.30
   4  -3 -18   43.00    3.60
   4   3  18   37.30    4.50
   4  -3 -18   34.80    4.00
   4   3  18   38.20    4.40
  -4  -3  18   39.50    4.50
   5   3 -18   51.49    4.60
  -5  -3 -18   55.79    4.70
  -5   3  18   71.89    5.00
   5  -3  18   65.69    4.80
  -5   3  18   60.39    5.10
   5   3  18   57.49    4.60
  -5   3 -18   56.19    4.50
   5   3  18   61.09    6.10
   5   3  18   58.89    5.10
   5  -3 -18   59.99    4.90
  -5  -3  18   55.79    5.10
   6   3 -18   38.70    4.70
   6  -3  18   48.20    4.90
  -6  -3 -18   46.20    5.00
  -6   3  18   46.30    4.80
  -6   3  18   44.20    5.00
   6  -3 -18   31.90    4.10
  -6   3 -18   42.80    4.40
   6   3  18   49.50    4.80
   6   3  18   48.60    5.30
  -6  -3  18   42.10    4.90
   6   3  18   43.70    5.60
  -7   3  18    2.20    1.80
   7   3 -18    5.20    2.10
  -7  -3 -18    3.60    1.80
   7  -3  18    5.00    2.10
   7   3  18    8.10    2.40
   7  -3 -18    3.70    1.80
  -7  -3  18    7.30    2.40
  -7   3 -18    3.70    1.90
  -8  -3 -18   59.49    6.20
  -8   3  18   54.09    5.50
   8  -3  18   59.19    5.90
   8   3 -18   56.69    6.30
  -8   3 -18   54.19    5.80
  -8  -3  18   46.70    5.80
   8  -3 -18   50.79    5.90
   8   3  18   67.19    6.20
   0  -4  18   75.79    5.40
   0   4  18   75.89    5.40
   0  -4 -18   76.89    5.30
   0   4  18   74.09    5.60
   0   4 -18   82.89    5.60
   1   4 -18  126.09    7.90
  -1   4  18  125.49    7.50
   1  -4  18  138.19    7.70
  -1  -4 -18  134.49    7.90
  -1   4  18  118.49    7.80
   1  -4  18  129.09    7.00
  -1  -4  18  128.59    7.70
   1   4  18  115.99    7.50
   1   4  18  134.29    8.10
   1  -4 -18  136.89    7.50
  -1   4 -18  134.39    7.90
   1  -4 -18  141.69    7.90
  -2  -4 -18   73.09    5.40
   2   4 -18   77.99    5.60
  -2   4  18   77.09    5.60
  -2   4  18   78.89    5.60
   2  -4  18   79.79    5.40
   2  -4  18   76.09    5.00
   2  -4 -18   75.99    5.30
  -2  -4  18   70.09    5.60
   2   4  18   86.49    5.90
   2  -4 -18   82.89    5.30
  -2   4 -18   80.69    5.50
   2   4  18   78.59    5.60
   3  -4  18   88.19    5.70
   3   4 -18   89.39    6.40
  -3  -4 -18   95.19    6.40
  -3   4  18   92.29    6.20
  -3   4  18   90.39    6.30
   3   4  18   84.29    6.40
   3  -4 -18  106.69    6.40
  -3  -4  18   93.59    6.50
   3  -4 -18   92.59    6.10
  -3   4 -18   98.79    6.30
   3   4  18  107.29    6.80
   4  -4  18   56.49    4.50
   4   4 -18   52.79    5.40
  -4   4  18   65.89    5.10
  -4  -4 -18   53.19    4.70
  -4   4 -18   58.69    4.60
   4  -4 -18   59.29    4.50
   4  -4 -18   60.99    4.70
  -4  -4  18   58.49    5.00
  -4   4 -18   55.19    4.30
   4   4  18   66.49    5.40
   4   4  18   59.29    5.80
  -5  -4 -18  151.48    9.00
  -5   4  18  152.98    9.10
   5   4 -18  155.68    9.20
   5  -4  18  163.88    9.00
  -5   4  18  147.79    8.80
   5   4  18  162.88    9.60
  -5  -4  18  128.39    9.10
  -5   4 -18  147.09    8.50
   5   4  18  147.69    9.60
   5  -4 -18  143.19    8.90
   6  -4  18   18.10    3.00
  -6  -4 -18   11.70    2.70
  -6   4  18   12.50    2.70
   6   4 -18   14.00    2.80
   6   4  18   18.30    3.60
   6  -4 -18   11.30    2.60
  -6  -4  18   12.80    3.10
   6   4  18   13.00    3.20
   6   4  18   13.60    2.70
  -6   4 -18   15.40    2.70
  -7   4  18   13.10    2.80
   7   4 -18   12.10    2.70
   7  -4  18   11.30    2.70
  -7  -4 -18   10.80    2.80
  -7   4 -18   12.60    2.90
  -7  -4  18   12.40    2.90
   7   4  18   12.30    2.80
   7  -4 -18   13.00    2.90
   7   4  18    8.40    3.50
   7   4  18   12.70    3.40
   8  -4  18    4.40    2.30
   8   4 -18    6.00    2.50
  -8  -4 -18    3.30    2.60
  -8   4  18    4.10    2.50
  -8   4 -18    4.30    2.00
  -8  -4  18    3.30    2.20
   8  -4 -18    5.30    2.20
   8   4  18    5.00    2.10
   0  -5 -18    1.20    1.20
   0  -5  18    0.00    1.00
   0   5  18   -1.30    1.20
   0   5  18    0.00    1.20
   0  -5  18   -0.40    1.10
   0   5 -18    0.50    1.40
   1  -5  18   22.60    2.70
  -1  -5 -18   26.00    3.40
   1  -5  18   19.80    2.80
   1   5 -18   24.80    3.50
  -1   5  18   18.60    3.00
  -1   5  18   21.60    2.90
  -1  -5  18   25.00    3.30
  -1   5 -18   19.80    3.00
   1  -5 -18   18.70    2.80
   1   5  18   24.50    3.30
   1   5  18   22.50    3.30
   1  -5 -18   33.40    3.30
   2  -5  18   10.10    2.20
  -2   5  18    9.30    2.20
   2  -5  18   11.70    2.00
   2   5 -18    8.20    2.10
  -2  -5 -18    6.40    2.00
  -2   5  18    7.40    2.10
   2  -5 -18    7.20    1.80
  -2  -5  18    6.10    2.00
   2   5  18    9.90    2.40
  -2   5 -18    9.20    2.30
   2  -5 -18   10.30    2.00
   2   5  18    8.90    2.20
  -3   5  18    2.80    1.60
  -3  -5 -18    0.50    1.30
   3  -5  18   -0.50    1.00
   3   5 -18    1.20    1.30
  -3   5  18   -1.20    1.20
   3   5  18    0.70    1.50
  -3  -5  18    1.70    1.60
   3   5  18   -0.50    1.40
   3  -5 -18    0.30    1.20
   3  -5 -18    3.40    1.50
  -3   5 -18    0.80    1.30
   4   5 -18   16.70    2.90
  -4  -5 -18   16.40    3.00
   4  -5  18   15.20    2.60
  -4   5  18   13.00    2.70
  -4   5 -18   22.70    3.30
  -4  -5  18   16.30    3.00
   4   5  18   13.30    2.90
   4  -5 -18   16.50    2.90
   4   5  18   22.50    3.60
   4  -5 -18   15.00    2.60
  -5   5  18    1.10    1.80
  -5   5  18    0.60    1.50
  -5  -5 -18    0.30    1.50
   5  -5  18    1.40    1.40
   5   5 -18    2.50    1.70
  -5  -5  18   -1.60    1.20
   5   5  18    0.30    2.00
   5  -5 -18    1.20    1.60
   5   5  18    0.20    1.80
   6  -5  18   37.70    4.40
  -6   5  18   34.20    4.10
  -6  -5 -18   37.80    4.70
   6   5 -18   36.30    4.80
  -6   5 -18   39.80    4.50
   6   5  18   37.70    4.90
   6   5  18   30.60    4.30
  -6  -5  18   35.60    4.70
   6  -5 -18   41.00    4.90
   6   5  18   33.20    4.90
   7   5 -18    3.40    2.10
  -7  -5 -18    2.80    2.20
   7  -5  18    1.00    1.90
  -7   5  18   -1.50    1.70
   7   5  18    4.50    2.40
   7  -5 -18    2.90    1.80
  -7  -5  18    0.40    1.80
   7   5  18    1.40    1.70
   7   5  18    2.00    2.80
  -7   5 -18    0.90    1.80
   8  -5  18   18.50    3.30
  -8  -5 -18   17.00    3.80
  -8   5  18   14.80    3.50
   8   5 -18   17.90    3.50
  -8  -5  18   16.00    3.60
  -8   5 -18   23.40    3.90
   8   5  18   20.10    3.70
   8  -5 -18   17.50    3.80
   0   6  18   10.10    2.20
   0  -6  18   11.60    2.40
   0  -6  18    6.20    1.60
   0  -6 -18    9.40    2.20
   0   6  18   13.70    2.80
   0   6 -18   10.10    2.40
  -1  -6 -18   63.89    5.00
  -1   6  18   58.19    4.50
   1  -6  18   57.59    4.70
   1  -6  18   58.09    4.30
   1   6 -18   63.79    5.20
  -1   6  18   63.19    5.10
  -1  -6  18   65.59    5.00
  -1   6 -18   64.89    5.10
   1   6  18   60.99    4.70
   1  -6 -18   65.49    4.90
   1   6  18   60.19    5.20
   2  -6  18   36.20    3.60
  -2   6  18   31.70    3.80
   2   6 -18   30.40    3.90
  -2   6  18   29.70    3.90
  -2  -6 -18   38.70    4.30
   2  -6 -18   41.70    4.00
  -2  -6  18   37.30    4.20
   2   6  18   34.70    3.90
   2  -6 -18   31.40    3.70
   2   6  18   31.30    4.10
  -2   6 -18   34.60    4.10
  -3  -6 -18   45.60    4.80
  -3   6  18   43.60    4.40
   3   6 -18   35.20    4.20
  -3   6  18   41.90    4.60
   3  -6  18   45.10    4.30
   3  -6 -18   41.50    4.50
  -3  -6  18   35.00    4.30
   3   6  18   43.60    5.10
   3  -6 -18   42.60    4.40
  -3   6 -18   38.00    4.30
   3   6  18   41.40    4.60
   4   6 -18   14.50    2.90
  -4  -6 -18   12.10    2.80
  -4   6  18   10.30    2.60
   4  -6  18    9.40    2.40
   4   6  18    9.10    2.70
   4  -6 -18   12.10    2.60
   4   6  18    9.60    2.60
  -4  -6  18   11.40    2.90
  -4   6 -18   11.60    2.60
  -4   6 -18   12.90    2.80
   4  -6 -18   10.20    2.30
   5   6 -18   53.19    5.60
   5  -6  18   63.29    5.00
  -5  -6 -18   58.19    5.60
  -5   6  18   57.39    5.50
  -5   6 -18   53.29    5.50
  -5  -6  18   42.50    5.40
   5   6  18   59.79    6.00
   5  -6 -18   55.09    5.60
  -5   6 -18   56.19    5.50
   5   6  18   48.60    5.60
   6   6 -18    6.10    2.30
  -6  -6 -18    5.90    2.20
   6  -6  18    7.40    2.40
  -6   6  18    8.20    2.50
   6   6  18    2.50    2.50
   6   6  18    8.20    2.60
   6  -6 -18    7.60    2.50
  -6  -6  18    8.30    2.60
  -7   6  18   26.40    4.00
   7  -6  18   19.40    3.50
   7   6 -18   25.80    4.00
  -7  -6 -18   22.10    4.00
   7  -6 -18   20.10    3.80
   7   6  18   22.90    4.10
   7   6  18   17.30    4.30
  -7  -6  18   22.50    4.00
   7   6  18   27.30    4.10
   0  -7  18    0.90    1.30
   0   7 -18   -0.70    1.20
   0   7  18   -0.90    1.10
   0  -7 -18   -1.60    1.20
   0  -7  18   -0.20    1.00
   0   7  18   -0.10    1.00
  -1   7  18    3.70    1.70
  -1   7  18    0.80    1.20
   1  -7  18    3.30    2.00
   1  -7  18    4.40    1.50
   1   7 -18    1.70    1.50
  -1  -7 -18    0.60    1.40
   1   7  18    2.00    1.60
   1   7  18    1.90    1.30
  -1  -7  18   -0.80    1.20
   1  -7 -18    1.40    1.40
  -1   7 -18   -1.10    1.40
  -1  -7  18   -0.30    1.20
  -2   7  18    9.80    2.20
   2   7 -18   16.10    3.00
  -2  -7 -18   14.80    2.70
  -2   7  18   12.60    2.80
   2  -7  18    9.40    2.10
   2   7  18   10.80    2.50
   2  -7 -18   12.10    2.40
  -2   7 -18   11.30    2.60
  -2  -7  18    9.20    2.40
   2   7  18    8.80    2.30
   2  -7 -18    7.00    2.10
   3   7 -18    0.70    1.40
  -3  -7 -18    3.30    2.00
  -3   7  18   -2.00    1.20
  -3   7  18    0.20    1.20
   3  -7  18    0.30    1.20
   3  -7 -18    0.70    1.10
   3   7  18    2.40    1.80
   3   7  18    0.80    1.60
   3  -7 -18    1.10    1.40
  -3   7 -18    0.60    1.40
  -3  -7  18   -0.20    1.70
   4   7 -18    5.10    2.20
  -4  -7 -18    5.70    2.20
   4  -7  18    3.40    1.80
   4   7  18    3.80    2.00
  -4   7 -18    3.70    2.20
   4   7  18    1.10    2.00
   4  -7 -18    3.30    1.70
   4  -7 -18    7.50    2.20
  -4   7 -18    2.80    1.90
  -4  -7  18    3.10    2.00
   5  -7  18    1.30    1.60
  -5   7  18   -0.30    1.50
   5   7 -18    2.50    2.00
  -5  -7 -18    1.80    1.60
   5  -7 -18    2.30    1.80
   5   7  18   -1.20    2.00
  -5  -7  18    0.70    1.80
  -5   7 -18   -2.60    1.40
  -5   7 -18    1.10    2.10
   5   7  18    4.10    2.30
  -6   7  18   -0.50    1.70
  -6  -7 -18    0.00    2.00
   6  -7  18    1.50    1.60
   6   7 -18    0.90    1.40
   6  -7 -18   -2.10    1.50
   6   7  18   -1.30    1.80
  -6  -7  18    0.80    1.80
   6   7  18    0.80    2.40
  -7  -7 -18   12.30    3.40
  -7   7  18    8.70    3.00
   7   7 -18    7.70    2.70
   7  -7  18   10.10    2.70
   7   7  18   12.60    4.00
   7   7  18    9.40    3.50
  -7  -7  18    9.00    2.80
   7  -7 -18   18.50    3.80
   0  -8  18   -0.40    1.00
   0   8 -18    1.20    1.60
   0  -8  18    1.60    1.60
   0   8  18    1.60    1.60
   0   8  18    0.20    1.20
   0   8 -18   -0.40    2.60
   0  -8 -18    3.00    1.90
  -1   8  18   29.00    3.30
  -1  -8 -18   24.20    3.50
   1   8 -18   28.20    4.20
   1   8 -18   32.10    7.40
   1  -8  18   24.70    3.30
  -1   8  18   23.40    3.90
  -1  -8  18   31.30    3.60
   1   8  18   29.40    3.50
   1   8  18   28.70    4.10
  -1  -8  18   23.10    3.50
   1  -8 -18   25.60    3.70
  -1   8 -18   22.30    3.60
  -1   8 -18   31.50    5.10
  -2   8  18   19.10    2.80
  -2  -8 -18   16.60    3.10
   2   8 -18   13.70    3.00
  -2   8  18   21.30    3.60
   2  -8  18   18.40    2.90
   2   8  18   16.80    3.40
   2  -8 -18   15.80    2.90
   2   8  18   19.40    2.90
  -2   8 -18   12.30    4.00
  -2  -8  18   16.60    3.10
  -2   8 -18   18.80    3.30
  -3   8  18   29.40    4.20
   3   8 -18   27.50    4.20
  -3  -8 -18   34.70    4.20
  -3   8  18   21.70    3.20
   3  -8  18   31.70    3.80
   3   8  18   25.80    3.70
  -3   8 -18   28.90    4.00
   3   8  18   24.30    3.90
  -3   8 -18   28.00    4.10
   3  -8 -18   24.10    3.60
   3  -8 -18   31.90    4.00
  -3  -8  18   23.20    3.70
   4   8 -18   15.90    3.20
  -4  -8 -18   13.90    3.00
   4  -8  18   16.80    3.00
  -4   8 -18   19.70    3.60
   4   8  18   16.10    3.00
   4   8  18   14.10    3.30
  -4   8 -18   15.10    3.20
   4  -8 -18   19.10    3.20
   4  -8 -18   12.70    2.80
  -4  -8  18   12.20    3.00
   5  -8  18    1.50    1.70
  -5   8  18    5.50    2.40
  -5  -8 -18    5.90    2.40
   5   8 -18    6.30    2.40
   5   8  18    5.30    2.80
  -5   8 -18    3.00    2.20
  -5  -8  18    5.10    2.40
   5  -8 -18    5.60    2.40
   5   8  18    5.40    2.70
  -5   8 -18    5.30    2.80
  -6  -8 -18    8.30    2.90
   6  -8  18    0.70    1.60
  -6   8  18    3.40    2.30
   6   8 -18    4.90    2.30
   6  -8 -18    5.40    2.70
  -6  -8  18    7.10    3.10
   6   8  18   -1.90    2.10
  -6   8 -18    9.40    3.40
  -6   8 -18    3.20    2.70
   6   8  18    6.90    3.20
   0   9 -18   -0.90    1.40
   0  -9 -18    0.10    1.50
   0   9 -18   -2.20    2.10
   0  -9  18    1.10    1.60
   0   9  18    1.30    1.70
   0   9  18    0.50    1.30
  -1  -9 -18   -2.00    1.20
   1  -9  18    2.20    1.60
   1   9 -18    2.90    3.10
  -1   9  18    3.50    2.00
  -1   9  18    0.10    1.20
   1   9 -18    1.10    1.70
  -1  -9  18   -3.20    1.40
  -1  -9  18    1.20    1.60
  -1   9 -18    0.60    1.80
   1  -9 -18    0.50    1.70
   1   9  18    2.20    1.50
   1   9  18    0.00    1.70
  -1   9 -18    2.50    2.80
  -2   9  18   -1.40    1.60
   2  -9  18    4.10    1.70
   2   9 -18    1.20    1.80
  -2   9  18    0.80    1.20
  -2  -9 -18    0.20    1.70
  -2   9 -18   -1.00    1.60
   2   9  18    0.80    1.60
  -2  -9  18   -0.50    1.80
  -2   9 -18    4.00    2.90
   2  -9 -18    0.70    1.70
  -2  -9  18    3.60    2.00
   2   9  18    1.50    1.40
  -3  -9 -18    3.50    2.00
   3   9 -18   -2.40    1.60
   3  -9  18    2.50    1.70
  -3   9 -18    1.40    3.60
   3   9  18    6.60    2.30
   3  -9 -18    0.80    1.70
  -3   9 -18    5.10    2.30
  -3   9 -18    5.50    2.70
   3  -9 -18   -0.10    2.50
  -3  -9  18    2.70    2.00
   3   9  18    0.10    1.50
  -4  -9 -18    1.50    2.20
   4   9 -18    6.30    2.40
   4  -9  18    5.50    2.20
   4   9  18    4.00    2.30
  -4   9 -18    9.00    2.90
   4   9  18    2.60    2.30
   4  -9 -18    4.50    2.40
  -4  -9  18    3.80    2.30
  -4   9 -18    2.40    2.30
   4  -9 -18    6.60    2.40
  -5  -9 -18   14.00    3.50
  -5   9  18   11.50    2.70
   5  -9  18   15.90    3.20
   5   9 -18   13.70    3.30
   5   9  18   14.10    3.60
  -5   9 -18   15.30    3.60
   5   9  18   11.40    3.60
  -5   9 -18   14.10    3.70
   5  -9 -18    8.50    2.90
  -5  -9  18   14.40    3.70
   0  10  18   49.50    4.00
   0  10 -18   49.40    6.40
   0 -10 -18   53.69    5.50
   0  10  18   52.19    5.80
   0  10 -18   45.80    5.50
   0 -10  18   47.90    5.10
   1  10 -18    8.30    2.70
   1  10 -18   11.10    3.80
  -1  10  18    5.10    1.70
  -1 -10 -18    4.90    2.20
   1 -10  18   10.80    2.60
  -1  10  18    8.10    2.70
  -1 -10  18    3.70    2.60
  -1  10 -18    8.30    2.60
   1  10  18    8.40    2.00
  -1 -10  18    4.00    2.10
   1  10  18    7.90    2.60
  -1  10 -18   13.70    3.70
   1 -10 -18    4.30    2.40
   2  10 -18   48.70    5.80
  -2  10  18   53.99    4.30
   2  10 -18   39.30    6.40
  -2 -10 -18   47.40    5.30
   2 -10  18   55.89    5.50
  -2 -10  18   56.39    5.60
  -2  10 -18   48.80    5.60
   2  10  18   53.89    6.20
  -2 -10  18   48.70    5.50
   2 -10 -18   38.40    4.90
  -2  10 -18   59.59    7.00
   2  10  18   54.69    4.60
   3 -10  18   14.20    3.00
  -3 -10 -18   17.60    3.50
   3  10 -18   13.70    3.20
  -3  10 -18   10.30    4.10
  -3 -10  18   14.00    3.30
  -3  10 -18   15.60    3.80
  -3  10 -18   10.40    3.10
   3  10  18   13.00    2.70
   3 -10 -18   16.10    3.50
   3  10  18    5.30    2.40
   4 -10  18   36.00    4.60
  -4 -10 -18   39.90    5.20
  -4  10  18   42.70    5.10
   4  10 -18   51.69    5.90
   4 -10 -18   36.20    4.90
   4  10  18   26.30    4.40
  -4 -10  18   46.20    5.60
  -4  10 -18   39.30    5.50
   4  10  18   40.60    4.70
  -4  10 -18   40.40    5.50
   0  11 -18    2.00    1.70
   0  11  18    1.20    1.80
   0  11  18    1.10    1.30
   0 -11 -18    0.10    1.90
   0 -11  18   -2.30    1.50
   0  11 -18    1.90    3.10
  -1 -11 -18    3.60    2.60
  -1  11  18    2.80    2.60
  -1  11  18    3.70    1.50
   1  11 -18    4.30    3.20
   1  11 -18   -3.20    1.40
   1 -11  18    1.80    1.70
   1 -11 -18    1.50    2.30
  -1 -11  18   -0.20    1.70
  -1  11 -18    2.00    2.60
   1  11  18    0.20    1.60
  -1  11 -18    3.50    3.20
   1  11  18   -0.10    1.40
   2 -11  18    5.40    2.10
  -2 -11 -18    3.20    2.60
  -2  11  18    2.20    1.40
   2  11 -18    2.60    2.20
   2  11 -18    2.60    3.70
   2  11  18    2.50    1.90
   2  11  18    1.50    1.50
   2 -11 -18    0.10    2.20
  -2 -11  18    2.00    2.60
  -2 -11  18    2.50    2.30
  -2  11 -18    1.60    3.40
  -2  11 -18    1.70    2.40
  -3 -11 -18   10.30    3.60
   3 -11  18   10.50    2.90
   3  11 -18   12.90    3.40
  -3  11 -18   16.10    4.80
  -3 -11  18   15.10    3.90
  -3  11 -18   19.20    4.60
   3 -11 -18   15.00    3.80
  -3  11 -18   11.20    3.50
   3  11  18    8.80    2.40
   3  11  18   10.30    2.90
   0   0 -19   -0.30    0.90
   0   0  19    2.00    1.70
   0   0  19    0.90    1.40
   0   0 -19    0.20    1.00
  -1   0  19   -2.10    1.40
   1   0 -19    0.60    0.90
   1   0  19   -0.90    1.10
   1   0 -19   -0.70    0.80
  -1   0  19    1.00    1.40
  -1   0 -19   -0.40    0.80
  -1   0 -19    0.40    0.90
   1   0  19   -1.40    1.50
  -2   0  19   66.59    5.30
  -2   0 -19   73.99    4.90
   2   0  19   79.29    5.70
   2   0 -19   66.09    4.90
   2   0  19   69.59    5.20
  -2   0  19   60.19    5.00
   2   0 -19   67.59    4.60
   3   0  19   -1.80    1.80
   3   0 -19   -2.10    0.70
  -3   0 -19   -0.80    0.80
   3   0 -19    1.20    1.30
   3   0  19   -1.10    1.50
  -3   0  19   -0.40    1.00
   4   0  19    6.90    1.80
   4   0  19    6.70    2.00
   4   0 -19    5.70    1.60
  -4   0  19    9.30    2.20
   4   0 -19    5.20    1.70
  -4   0 -19    8.30    1.90
   5   0  19   -1.30    1.00
  -5   0 -19   -0.10    1.20
  -5   0  19    0.50    1.30
   5   0  19    0.70    1.70
   5   0 -19    0.30    1.40
  -6   0 -19   15.50    2.80
  -6   0  19   15.80    3.10
   6   0  19   18.10    2.90
   6   0 -19   13.70    3.00
  -7   0 -19    0.00    1.30
   7   0  19   -1.20    1.70
  -7   0  19    1.30    1.70
   7   0 -19   -0.40    1.40
  -8   0 -19   27.40    4.10
   8   0  19   27.40    4.10
   8   0 -19   26.20    4.20
   0   1 -19   41.10    3.40
   0  -1 -19   42.90    3.30
   0  -1  19   38.60    4.40
   0  -1 -19   31.60    3.40
   0   1  19   32.20    3.90
   0  -1  19   38.10    4.20
   0   1 -19   35.60    3.10
   0   1  19   42.10    4.40
  -1  -1 -19    1.00    1.00
   1   1 -19    1.50    1.20
  -1   1  19   -0.30    1.30
   1  -1  19    0.50    1.80
  -1  -1 -19    2.30    1.10
  -1   1  19   -1.50    0.90
   1   1 -19    0.70    1.00
   1  -1  19    1.20    1.40
   1   1  19    0.50    1.70
  -1  -1  19    0.30    1.00
   1   1  19    1.10    1.50
  -1   1 -19    1.40    1.20
  -1  -1  19    2.40    1.90
   1  -1 -19    2.20    1.10
  -1   1 -19    2.90    1.20
   1  -1 -19    2.00    1.20
  -2   1  19   33.80    4.00
   2  -1  19   31.20    3.70
   2   1 -19   38.20    3.50
  -2  -1 -19   37.60    3.90
   2   1 -19   27.20    3.50
  -2   1  19   44.80    4.70
   2  -1 -19   27.00    3.20
   2  -1 -19   34.20    3.50
   2   1  19   39.00    4.50
  -2  -1  19   40.30    4.60
  -2   1 -19   34.80    3.60
  -2   1 -19   34.70    3.40
  -2  -1  19   25.40    3.60
   2   1  19   34.30    4.00
  -3   1  19  168.38   10.00
   3   1 -19  174.18    9.90
   3  -1  19  181.28    9.90
  -3   1  19  181.58   10.30
  -3  -1 -19  173.18    9.70
   3   1  19  181.78   10.50
  -3  -1  19  176.28   10.10
   3  -1 -19  195.18   10.00
   3  -1 -19  180.88    9.50
  -3   1 -19  172.48    9.60
   3   1  19  173.98   10.00
  -4   1  19   38.40    4.40
   4  -1  19   44.40    4.00
   4   1 -19   32.00    3.90
  -4  -1 -19   49.20    4.70
   4  -1  19   38.90    4.30
  -4  -1  19   36.20    4.30
   4   1  19   45.40    4.70
   4  -1 -19   41.00    3.50
  -4   1 -19   36.80    3.90
   4  -1 -19   40.60    4.40
   4   1  19   43.20    5.20
  -5   1  19   44.20    4.40
   5  -1  19   48.30    4.60
   5   1 -19   37.10    4.40
  -5   1  19   42.40    4.80
  -5  -1 -19   45.20    4.70
  -5   1 -19   47.40    4.60
   5   1  19   48.00    5.10
   5   1  19   47.50    4.00
   5  -1 -19   46.50    4.80
  -5  -1  19   49.90    5.30
  -6  -1 -19    5.40    2.10
   6  -1  19    5.00    2.00
  -6   1  19    9.90    2.50
  -6   1  19    8.80    2.10
   6   1 -19    5.00    2.10
  -6   1 -19    9.60    2.30
   6   1  19    7.30    2.00
  -6  -1  19    9.30    2.60
   6  -1 -19    5.30    2.20
  -7  -1 -19   21.10    3.50
   7   1 -19   14.90    3.20
   7  -1  19   14.90    3.00
  -7   1  19   20.60    3.70
   7  -1 -19   12.40    3.00
  -7   1 -19   10.80    2.60
   7   1  19   13.30    2.90
  -7  -1  19   30.00    4.30
   8   1 -19    1.10    1.60
  -8  -1 -19    2.30    1.80
   8  -1  19    4.20    2.10
  -8   1 -19    0.90    1.70
   8   1  19    7.20    2.40
   8  -1 -19    0.10    1.20
  -8  -1  19    2.90    2.30
   0   2 -19    0.20    1.10
   0   2 -19    0.60    1.10
   0   2  19    1.30    1.40
   0   2  19    1.80    1.50
   0  -2 -19    1.10    0.90
   0  -2  19    0.00    1.20
   0  -2 -19    0.50    0.80
   1  -2  19   17.00    2.80
   1   2 -19   19.90    2.80
  -1   2  19   24.50    3.30
  -1  -2 -19   14.80    2.40
  -1   2  19   19.50    2.90
   1  -2 -19   22.10    2.90
   1   2  19   16.70    2.90
  -1   2 -19   21.10    2.60
  -1  -2  19   15.80    2.60
   1   2  19   14.30    2.60
  -1   2 -19   19.00    2.60
   1  -2 -19   22.30    2.70
   2  -2  19    2.70    1.50
  -2  -2 -19    2.00    1.20
  -2   2  19    1.20    1.50
  -2   2  19    1.70    1.40
   2   2 -19    2.20    1.50
   2  -2 -19    2.40    1.20
  -2   2 -19   -0.10    1.10
  -2   2 -19    1.20    1.00
   2   2  19    1.70    1.50
   2  -2 -19    2.20    1.30
   2   2  19    1.30    1.60
  -2  -2  19    3.40    1.50
  -3   2  19    2.80    1.70
  -3  -2 -19    3.80    1.40
   3   2 -19    2.00    1.50
  -3   2  19    1.60    1.50
   3  -2  19    2.50    1.60
   3  -2  19    3.10    1.30
  -3  -2  19    2.90    1.50
   3  -2 -19    1.80    1.50
   3   2  19    1.00    1.80
   3   2  19   -0.80    1.30
   3  -2 -19   -0.10    0.80
  -3   2 -19    1.10    1.00
   4  -2  19   27.90    3.20
   4   2 -19   26.20    3.50
  -4  -2 -19   20.00    3.00
  -4   2  19   23.80    3.50
   4  -2  19   30.70    4.30
   4   2  19   28.00    4.20
   4  -2 -19   28.10    3.20
  -4   2 -19   23.50    3.20
   4   2  19   32.00    4.00
  -4  -2  19   26.30    3.60
   4  -2 -19   30.70    3.80
  -5  -2 -19    7.90    2.10
   5   2 -19   10.40    2.30
   5  -2  19    6.90    1.90
  -5   2  19    9.60    2.10
  -5   2  19    9.30    2.50
   5   2  19   12.30    2.30
  -5  -2  19    5.10    2.00
  -5   2 -19   15.50    2.50
   5   2  19   11.40    3.20
   5   2  19   17.60    3.10
   5  -2 -19   16.20    3.00
   6   2 -19   46.20    5.20
  -6   2  19   58.79    5.10
   6  -2  19   57.29    5.30
  -6   2  19   54.49    5.10
  -6  -2 -19   45.70    5.00
   6  -2 -19   54.49    5.60
   6   2  19   52.99    5.00
   6   2  19   48.20    5.40
  -6  -2  19   54.79    5.80
  -6   2 -19   48.40    4.90
   7   2 -19   -0.80    1.50
   7  -2  19    2.60    1.90
  -7  -2 -19    3.50    1.80
  -7   2  19    2.30    1.70
   7   2  19   -0.80    1.40
  -7   2 -19    2.00    1.60
   7  -2 -19    4.10    2.00
  -7  -2  19    3.80    2.00
   8   2 -19   16.00    3.30
  -8  -2 -19    7.70    2.40
  -8   2  19   12.90    3.40
   8  -2  19   17.20    3.40
   8  -2 -19   16.30    3.10
  -8   2 -19   11.60    2.90
  -8  -2  19   11.70    3.30
   8   2  19   15.90    3.30
   0   3 -19   16.70    2.80
   0   3  19   20.70    3.20
   0   3  19   18.90    3.10
   0  -3  19   20.40    3.00
   0  -3 -19   20.60    2.50
   0  -3 -19   22.10    2.90
  -1   3  19   16.20    2.90
  -1   3  19   13.70    2.60
   1  -3  19   11.90    2.40
  -1  -3 -19    7.30    1.80
   1   3 -19   13.60    2.60
   1  -3 -19   10.00    2.00
   1   3  19   15.00    2.80
   1  -3 -19    9.00    1.90
   1   3  19    9.10    2.50
  -1  -3  19   11.70    2.40
  -1   3 -19    8.00    2.00
   2  -3  19   27.20    3.30
  -2  -3 -19   24.40    3.30
  -2   3  19   20.20    3.20
   2   3 -19   21.30    3.20
   2  -3  19   25.10    3.30
  -2   3  19   24.00    3.50
  -2   3 -19   26.70    3.10
  -2  -3  19   21.90    3.20
   2  -3 -19   30.40    3.40
  -2   3 -19   24.60    3.20
   2   3  19   21.00    3.40
   2  -3 -19   31.30    3.50
   2   3  19   30.40    4.00
  -3  -3 -19    4.80    1.60
  -3   3  19    3.10    1.80
   3  -3  19    6.00    1.90
   3  -3  19    3.90    1.40
   3   3 -19    4.20    1.70
  -3   3  19    7.90    2.20
   3   3  19    4.70    2.20
   3  -3 -19    5.80    1.70
  -3   3 -19    6.10    1.80
   3  -3 -19    3.80    1.50
   3   3  19    6.20    1.90
  -3   3 -19    7.00    1.80
  -3  -3  19    7.40    2.10
  -4   3  19   83.09    6.10
   4  -3  19   73.89    5.40
  -4  -3 -19   79.99    5.70
   4   3 -19   84.89    6.00
  -4  -3  19   83.19    6.10
   4  -3 -19   75.49    5.60
   4   3  19   88.29    6.60
   4   3  19   75.79    5.90
  -4   3 -19   83.99    5.50
   4  -3 -19   72.49    5.30
  -5  -3 -19   25.00    3.70
   5  -3  19   24.10    3.30
   5   3 -19   24.70    3.50
  -5   3  19   24.20    3.60
  -5   3  19   26.50    3.40
  -5  -3  19   21.40    3.60
   5   3  19   24.70    3.80
   5   3  19   26.30    4.10
   5  -3 -19   29.40    3.90
  -5   3 -19   24.60    3.30
   6   3 -19   62.39    5.30
  -6   3  19   72.69    5.40
  -6   3  19   62.99    5.50
   6  -3  19   62.99    5.10
  -6  -3 -19   64.89    5.40
   6   3  19   54.79    5.80
  -6  -3  19   59.99    5.50
   6  -3 -19   51.19    5.60
  -6   3 -19   67.29    5.20
   6   3  19   65.49    5.30
   6   3  19   53.19    6.40
   7   3 -19   -0.20    1.40
  -7  -3 -19    0.00    1.50
  -7   3  19    1.60    1.70
   7  -3  19   -1.70    1.40
  -7   3 -19    2.80    1.90
  -7  -3  19    0.20    1.80
   7   3  19    2.20    1.90
   7  -3 -19    3.00    1.80
  -8  -3 -19    6.30    2.80
   8  -3  19   13.80    3.00
   8   3 -19    9.60    2.70
  -8   3  19   10.50    3.00
   8  -3 -19    9.20    2.50
  -8  -3  19   10.60    3.00
   8   3  19   12.60    2.90
  -8   3 -19   15.60    3.20
   0  -4 -19    0.10    1.00
   0   4  19   -1.10    1.30
   0   4  19   -1.10    1.10
   0  -4  19   -0.80    1.20
   0   4 -19    0.90    1.30
   1  -4  19    7.20    2.00
   1   4 -19    8.50    2.20
  -1   4  19    5.80    2.00
  -1  -4 -19    8.80    1.90
  -1   4  19   10.30    2.30
  -1   4 -19    5.00    1.70
  -1  -4  19    4.40    1.70
   1  -4 -19    8.70    1.90
   1  -4 -19    5.00    1.50
   1   4  19    2.50    1.60
   1   4  19   10.30    2.40
   2  -4  19    7.90    1.70
  -2   4  19    9.30    2.30
  -2   4  19    7.60    2.10
  -2  -4 -19    7.80    1.80
   2   4 -19    6.50    2.00
   2  -4  19    6.60    1.90
   2  -4 -19    9.00    1.80
  -2   4 -19    4.50    1.80
   2   4  19    6.10    2.20
   2  -4 -19    7.10    1.90
   2   4  19    6.60    2.20
  -2  -4  19    9.10    2.30
  -3   4  19    7.00    2.20
   3   4 -19    8.20    2.20
  -3  -4 -19    9.70    2.20
   3  -4  19   12.60    2.10
  -3   4  19   11.60    2.40
  -3   4 -19    7.00    2.00
   3   4  19    8.60    2.30
   3   4  19    8.60    2.50
  -3  -4  19    4.40    1.80
   3  -4 -19   10.80    2.20
   3  -4 -19   10.30    2.10
  -4  -4 -19    0.90    1.20
   4   4 -19   -0.10    1.40
  -4   4  19    1.30    1.50
   4  -4  19    1.00    1.30
  -4  -4  19   -2.20    0.90
   4   4  19    0.10    1.30
   4   4  19    0.80    1.80
  -4   4 -19    0.70    1.70
  -4   4 -19   -0.50    1.80
   4  -4 -19    0.90    1.10
   4  -4 -19   -0.10    1.30
   5  -4  19   16.60    2.80
  -5   4  19   21.10    3.40
  -5   4  19   15.10    2.90
   5   4 -19   11.10    2.60
  -5  -4 -19   14.10    2.90
   5   4  19   20.90    3.70
  -5  -4  19   17.40    3.30
  -5   4 -19   14.40    2.60
   5  -4 -19   17.60    3.00
   5   4  19   15.40    3.60
  -6   4  19   35.70    4.20
  -6  -4 -19   28.40    4.10
   6  -4  19   25.80    3.70
   6   4 -19   23.20    3.80
  -6  -4  19   33.40    4.70
   6  -4 -19   26.20    3.90
   6   4  19   26.30    4.60
   6   4  19   26.30    4.10
  -6   4 -19   27.90    3.70
  -7  -4 -19   19.60    3.80
   7  -4  19   28.90    4.10
   7   4 -19   21.10    3.60
  -7   4  19   28.30    3.90
   7   4  19   26.40    5.90
   7   4  19   23.80    4.20
  -7  -4  19   23.90    3.90
   7  -4 -19   25.40    4.10
   7   4  19   24.60    3.70
  -7   4 -19   21.80    3.60
  -8   4  19    0.90    2.10
   8  -4  19    2.60    2.10
   8   4 -19    0.20    1.70
  -8  -4 -19   -1.50    2.30
   8   4  19   -2.10    1.90
  -8   4 -19    1.10    2.00
   8  -4 -19    3.10    1.50
  -8  -4  19   -0.20    1.80
   0   5  19    7.00    2.00
   0   5  19    8.40    2.20
   0  -5  19    8.30    2.10
   0  -5 -19   10.60    2.10
   0   5 -19   10.30    2.50
   1  -5  19    9.50    1.90
  -1   5  19    7.70    2.10
   1   5 -19   10.50    2.40
  -1  -5 -19    5.70    1.80
  -1   5  19    9.90    2.30
   1  -5  19    7.50    1.90
   1  -5 -19    6.70    1.90
   1   5  19    5.20    2.00
  -1  -5  19    8.00    2.20
   1   5  19    7.60    2.10
   1  -5 -19    9.20    2.00
  -1   5 -19    9.10    2.30
  -2   5  19   29.80    3.80
  -2  -5 -19   30.30    3.70
   2  -5  19   35.70    3.90
  -2   5  19   31.90    4.10
   2  -5  19   28.20    3.20
   2   5 -19   21.70    3.50
   2  -5 -19   28.00    3.50
  -2  -5  19   29.00    3.90
  -2   5 -19   32.90    3.80
   2  -5 -19   39.90    4.00
   2   5  19   29.00    4.10
   2   5  19   26.70    3.60
  -3   5  19    8.70    2.20
  -3   5  19    9.10    2.30
  -3  -5 -19   11.50    2.50
   3   5 -19    7.40    2.00
   3  -5  19   11.00    2.10
  -3  -5  19    8.10    2.30
   3  -5 -19   11.10    2.30
   3   5  19    6.80    2.10
   3   5  19   12.20    2.80
   3  -5 -19   10.70    2.40
  -3   5 -19    8.60    2.20
   4   5 -19   33.80    4.40
  -4  -5 -19   29.80    4.00
   4  -5  19   36.90    4.10
  -4   5  19   37.60    4.60
   4  -5 -19   32.10    3.80
  -4   5 -19   34.60    4.10
   4   5  19   29.10    4.30
   4   5  19   42.80    5.00
  -4  -5  19   40.20    4.70
   4  -5 -19   36.00    4.20
  -5   5  19   47.90    4.90
  -5  -5 -19   42.00    5.00
   5  -5  19   45.00    4.80
   5   5 -19   55.29    5.60
  -5   5  19   46.60    5.20
   5  -5 -19   51.79    5.50
  -5  -5  19   36.60    4.90
   5   5  19   50.49    5.50
   5   5  19   46.00    5.50
  -6   5  19   41.50    4.70
   6  -5  19   31.80    4.20
   6   5 -19   42.30    5.10
  -6  -5 -19   39.30    5.00
  -6  -5  19   28.80    4.40
   6   5  19   38.80    5.00
   6   5  19   37.80    5.40
   6  -5 -19   44.40    5.10
   7   5 -19    0.00    1.80
  -7  -5 -19    3.60    2.10
  -7   5  19    1.10    1.80
   7  -5  19    0.40    1.70
  -7   5 -19   -0.40    2.20
  -7  -5  19    0.00    1.70
   7  -5 -19    2.00    2.10
   7   5  19    4.40    2.90
   7   5  19    2.40    2.60
   0   6  19   -2.00    1.00
   0  -6 -19    2.00    1.40
   0   6  19   -0.10    1.30
   0  -6  19    0.90    1.40
   0   6 -19    0.60    1.30
   1  -6  19    2.30    1.60
   1  -6  19    2.30    1.30
  -1  -6 -19    2.00    1.40
  -1   6  19    1.80    1.50
   1   6 -19    2.00    1.70
  -1   6  19    0.10    1.40
   1   6  19   -2.30    1.10
  -1  -6  19    2.00    1.70
   1  -6 -19    0.60    1.20
   1   6  19    3.40    1.70
  -1   6 -19    1.20    1.50
  -2  -6 -19    1.00    1.50
  -2   6  19    0.10    1.40
  -2   6  19    1.60    1.70
   2   6 -19   -1.00    1.20
   2  -6  19    0.60    1.10
   2  -6 -19    2.10    1.30
  -2   6 -19   -0.60    1.50
   2   6  19    2.60    1.70
   2   6  19    2.60    1.90
  -2  -6  19    3.00    1.70
   2  -6 -19   -0.80    1.30
   3  -6  19    5.00    1.60
  -3  -6 -19    2.30    1.70
  -3   6  19    3.10    1.70
  -3   6  19    0.70    1.60
   3   6 -19    2.50    1.80
   3   6  19    5.50    2.20
  -3   6 -19    3.60    1.90
   3  -6 -19    2.60    1.60
   3  -6 -19    2.60    1.40
  -3  -6  19    2.50    1.80
   3   6  19    2.60    1.80
   4  -6  19   18.60    3.00
  -4   6  19   17.30    3.30
   4   6 -19   14.00    2.80
  -4  -6 -19   18.50    3.30
   4  -6 -19   14.40    2.90
  -4  -6  19   14.70    3.10
   4   6  19   15.60    3.30
   4   6  19   13.20    3.20
   4  -6 -19   19.70    3.20
  -4   6 -19   23.00    3.40
   5   6 -19    2.10    1.70
  -5  -6 -19   -0.10    1.50
  -5   6  19   -0.20    1.60
   5  -6  19    4.40    1.80
   5   6  19    0.50    2.20
   5   6  19    0.30    2.00
   5  -6 -19    1.70    1.70
  -5  -6  19   -0.20    1.80
   6   6 -19    0.40    1.60
  -6  -6 -19    0.50    2.00
  -6   6  19    2.10    2.00
   6  -6  19    0.40    1.70
   6   6  19   -0.40    2.30
   6   6  19    0.00    2.00
   6  -6 -19   -1.60    1.70
  -6  -6  19    1.40    1.70
  -7  -6 -19    3.70    2.70
  -7   6  19    1.90    2.40
   7   6 -19    6.60    2.40
   7  -6  19    5.10    2.10
   7   6  19    2.20    2.90
  -7  -6  19    2.20    2.10
   7  -6 -19    5.40    2.60
   7   6  19    5.80    3.50
   0  -7 -19   38.50    4.40
   0   7 -19   36.50    4.70
   0  -7  19   42.90    4.60
   0   7  19   40.50    4.90
   0   7  19   40.60    4.20
   0  -7  19   43.30    4.20
  -1   7  19   11.80    2.70
   1   7 -19   13.20    2.90
  -1  -7 -19   14.20    2.70
   1  -7  19   15.50    2.60
  -1   7  19   14.10    2.50
  -1  -7  19   20.20    3.30
  -1   7 -19   13.80    3.00
   1   7  19   17.80    3.40
   1   7  19   13.40    2.60
   1  -7 -19   13.10    2.70
   2   7 -19   38.60    4.80
  -2   7  19   41.10    4.30
  -2   7  19   55.29    5.50
   2  -7  19   31.90    3.80
  -2  -7 -19   51.69    5.30
   2  -7 -19   46.80    4.80
   2   7  19   37.30    4.80
  -2  -7  19   44.40    4.80
   2   7  19   39.20    4.40
  -2   7 -19   51.39    5.40
  -3   7  19   42.50    4.90
  -3   7  19   35.00    4.10
   3   7 -19   28.70    4.10
  -3  -7 -19   33.50    4.30
   3  -7  19   37.90    4.20
   3   7  19   31.80    4.20
   3  -7 -19   35.30    4.30
  -3  -7  19   30.60    4.30
   3   7  19   36.50    4.80
   3  -7 -19   44.80    4.60
  -3   7 -19   34.20    4.40
  -4  -7 -19   18.50    3.40
   4   7 -19   27.20    4.00
   4  -7  19   20.30    3.20
   4   7  19   17.20    3.40
  -4   7 -19   19.80    3.60
   4  -7 -19   19.80    3.40
   4  -7 -19   18.80    3.40
  -4  -7  19   18.00    3.50
   4   7  19   17.60    3.60
  -4   7 -19   22.90    3.80
   5  -7  19   13.50    2.70
  -5  -7 -19    7.30    2.70
  -5   7  19    7.10    2.40
   5   7 -19    8.20    2.60
  -5   7 -19    9.40    2.90
  -5   7 -19   12.20    3.20
  -5  -7  19   14.60    3.30
   5   7  19    3.10    2.60
   5   7  19    8.10    2.70
   5  -7 -19   10.30    2.80
  -6  -7 -19    2.10    2.10
   6  -7  19   -2.40    1.40
   6   7 -19    0.70    1.80
  -6   7  19    2.50    2.30
   6   7  19   -1.00    1.80
   6  -7 -19    1.80    2.30
   6   7  19   -0.80    2.40
  -6  -7  19   -0.40    1.70
   0   8  19    0.00    1.20
   0   8 -19    1.40    1.70
   0  -8 -19    0.40    1.70
   0  -8  19   -0.60    1.60
   0  -8  19    0.00    1.20
   0   8  19    0.50    1.60
   1  -8  19   18.20    3.00
   1   8 -19   26.80    4.10
  -1   8  19   27.30    3.30
  -1   8  19   23.40    3.80
  -1  -8 -19   24.20    3.80
   1  -8 -19   20.30    3.30
  -1  -8  19   25.30    3.80
   1   8  19   19.40    3.00
   1   8  19   22.60    3.70
  -1   8 -19   17.20    3.30
   2  -8  19    1.30    1.30
   2   8 -19    3.80    2.00
  -2   8  19    1.70    1.30
  -2  -8 -19    1.50    2.00
  -2   8  19    1.30    1.60
   2   8  19    2.30    1.60
  -2  -8  19    1.20    1.90
  -2   8 -19    1.60    1.80
   2   8  19    3.70    2.10
   2  -8 -19    0.90    1.70
  -3  -8 -19   11.70    3.00
  -3   8  19   16.50    2.80
   3   8 -19   13.30    3.00
  -3   8  19   16.10    3.50
   3  -8  19   13.10    2.70
   3   8  19   15.90    3.10
  -3  -8  19   13.70    3.10
   3  -8 -19   13.60    3.00
  -3   8 -19   12.50    3.00
   3  -8 -19   12.90    2.90
   3   8  19   10.40    2.90
  -4  -8 -19   20.50    3.60
   4   8 -19   23.60    3.90
   4  -8  19   21.40    3.40
   4  -8 -19   18.80    3.30
   4  -8 -19   16.60    3.10
   4   8  19   21.00    4.00
  -4  -8  19   17.70    3.70
  -4   8 -19   25.20    4.20
   4   8  19   17.70    3.50
  -4   8 -19   20.40    3.70
   5   8 -19    6.20    2.40
  -5   8  19   10.00    2.90
   5  -8  19   10.80    2.70
  -5  -8 -19   11.40    3.20
  -5   8 -19    7.70    2.70
  -5   8 -19    9.50    3.10
   5  -8 -19    4.10    2.20
   5   8  19    5.60    3.00
  -5  -8  19    5.50    2.80
   5   8  19   10.40    3.20
   6   8 -19    0.10    1.80
  -6   8  19    4.30    2.90
  -6  -8 -19    4.80    2.70
   6  -8  19    7.50    2.50
   6  -8 -19    7.20    2.90
   6   8  19    6.30    3.60
  -6  -8  19    0.90    2.60
   6   8  19    4.30    3.20
   0  -9 -19   28.20    3.90
   0   9  19   28.30    4.30
   0  -9  19   27.90    3.70
   0   9 -19   22.70    3.80
   0   9  19   27.90    3.40
  -1  -9 -19    3.60    2.20
   1   9 -19    7.10    2.30
  -1   9  19    5.30    2.40
  -1   9  19    3.00    1.50
   1  -9  19    4.70    2.10
   1  -9 -19    5.90    2.40
  -1  -9  19    1.60    1.90
  -1   9 -19    3.90    2.10
   1   9  19    5.00    1.80
   1   9  19    3.10    2.00
  -1  -9  19    2.50    1.80
   2  -9  19   11.80    2.80
  -2   9  19   10.50    2.20
   2   9 -19    7.40    2.70
  -2   9  19    9.40    2.90
  -2  -9 -19    9.50    2.70
   2  -9 -19    7.70    2.50
  -2   9 -19   10.60    2.80
   2   9  19    9.40    2.20
  -2  -9  19    5.30    2.30
   2   9  19    7.10    2.50
   3  -9  19   10.80    2.70
   3   9 -19   10.60    2.90
  -3  -9 -19   14.50    3.10
   3  -9 -19   13.40    3.10
  -3  -9  19    8.60    2.90
   3   9  19    7.40    2.70
  -3   9 -19   12.20    3.20
   3   9  19    8.90    2.30
   4  -9  19   10.20    2.50
  -4  -9 -19    7.20    2.70
   4   9 -19   16.80    3.30
   4   9  19    9.40    3.10
   4   9  19   13.20    3.70
   4  -9 -19   10.20    3.00
  -4  -9  19   10.60    3.20
  -4   9 -19    7.90    3.10
   4  -9 -19    9.30    2.70
  -4   9 -19    8.00    2.80
  -5   9  19    2.50    1.80
   5  -9  19    0.80    1.60
   5   9 -19    3.40    2.10
  -5  -9 -19    1.70    2.40
   5   9  19   -0.70    2.80
   5  -9 -19    3.20    2.50
  -5   9 -19    1.10    2.80
  -5  -9  19    3.40    2.70
  -5   9 -19    2.70    2.30
   5   9  19    2.10    2.90
   0 -10 -19    0.50    1.90
   0  10 -19    0.90    2.00
   0  10  19   -0.30    1.20
   0  10  19   -0.60    1.60
   0 -10  19   -3.80    1.20
  -1 -10 -19    4.70    2.50
  -1  10  19    3.80    1.60
   1 -10  19    6.30    2.10
   1  10 -19    6.40    2.50
  -1  10  19    5.40    2.60
   1  10  19    2.70    1.70
  -1  10 -19    8.70    3.00
  -1  10 -19    3.60    4.30
   1 -10 -19    5.50    2.50
  -1 -10  19    6.70    2.30
   1  10  19    3.40    2.10
   2 -10  19   14.70    3.00
  -2  10  19   17.80    2.70
   2  10 -19   19.60    3.60
  -2 -10 -19   12.90    3.20
   2  10  19   15.30    2.70
   2  10  19   23.80    4.20
  -2  10 -19   12.70    3.30
  -2 -10  19   16.60    3.40
   2 -10 -19   14.30    3.50
   3  10 -19    0.50    1.80
  -3 -10 -19   -2.60    1.90
   3 -10  19   -0.10    1.60
  -3  10 -19    0.30    2.20
  -3 -10  19    0.20    2.20
   3 -10 -19    0.20    2.20
   3  10  19    4.60    1.90
   3  10  19   -0.60    1.50
   4  10 -19   11.60    3.30
  -4 -10 -19   14.50    3.60
   4 -10  19   10.30    3.00
  -4  10  19    9.50    3.00
  -4 -10  19   12.30    4.00
  -4  10 -19   17.40    4.30
  -4  10 -19    7.80    3.00
   4  10  19   12.40    3.60
   4  10  19    9.80    2.90
   4 -10 -19   13.20    3.80
   0  11  19   25.10    3.30
   0  11 -19   22.10    5.20
   0  11 -19   20.20    3.90
   0 -11 -19   24.00    4.10
   0  11  19   24.00    4.20
   0 -11  19   20.70    3.60
  -1 -11 -19   20.50    4.00
  -1  11  19   19.00    4.10
  -1  11  19   12.50    2.40
   1  11 -19   16.90    3.40
   1 -11  19   17.20    3.30
   1  11  19   17.60    2.80
  -1 -11  19   24.80    3.90
   1 -11 -19   19.50    3.90
  -1  11 -19   23.50    5.60
  -1  11 -19   16.20    4.10
   1  11  19    9.40    3.10
  -2  11  19   29.70    3.40
  -2 -11 -19   29.30    4.70
   2 -11  19   21.00    3.50
   2  11 -19   28.20    4.50
   2  11  19   17.70    4.00
  -2  11 -19   25.90    6.00
  -2  11 -19   24.10    4.80
   2 -11 -19   27.30    4.70
  -2 -11  19   21.20    4.20
   2  11  19   21.40    3.40
   0   0 -20   94.39    6.10
   0   0  20  117.09    7.70
   0   0  20  116.69    7.50
   0   0 -20  108.89    6.20
   1   0 -20   -1.10    0.90
  -1   0 -20    1.10    0.90
   1   0 -20    0.40    0.90
   1   0  20   -1.10    1.40
  -1   0  20    0.80    1.70
  -1   0  20   -2.30    1.10
   1   0  20    1.10    1.30
  -1   0 -20    1.40    1.10
   2   0  20   32.40    3.90
  -2   0  20   31.00    4.20
   2   0 -20   26.30    3.30
   2   0 -20   29.80    3.20
   2   0  20   33.90    4.40
  -2   0  20   28.10    3.80
  -2   0 -20   31.20    3.50
   3   0 -20    0.00    1.10
  -3   0  20    0.40    1.40
   3   0  20    1.20    1.50
   3   0 -20   -0.10    1.20
  -3   0 -20   -1.40    0.90
  -4   0 -20   81.39    5.70
  -4   0  20   71.59    5.70
   4   0 -20   72.39    5.70
   4   0  20   72.69    5.70
   5   0 -20    1.40    1.50
  -5   0  20    0.90    1.40
   5   0  20   -1.60    1.30
   5   0  20   -1.40    1.90
  -5   0 -20    0.50    1.40
  -6   0  20   53.29    5.80
  -6   0 -20   51.99    5.30
   6   0  20   54.59    5.20
   6   0 -20   51.59    5.40
   7   0  20    2.10    1.90
  -7   0 -20   -4.00    1.20
   7   0 -20   -2.00    1.20
  -7   0  20   -1.40    1.80
   8   0  20   49.99    5.50
  -8   0 -20   38.70    4.80
   8   0 -20   47.30    5.40
   0  -1 -20    0.80    1.10
   0   1  20    1.00    1.30
   0   1 -20    0.30    1.00
   0   1 -20    0.20    0.90
   0  -1 -20   -0.70    0.90
   0   1  20   -2.00    1.30
   0  -1  20    0.90    1.30
   1   1 -20   44.60    3.60
   1  -1  20   51.99    4.50
   1   1 -20   48.30    3.90
  -1  -1 -20   44.90    3.80
  -1  -1 -20   53.59    4.40
  -1   1  20   42.50    4.70
  -1   1  20   46.80    5.10
  -1   1 -20   43.00    3.60
   1   1  20   46.50    5.00
   1   1  20   46.00    5.00
   1  -1 -20   44.00    3.70
  -1  -1  20   45.70    4.20
  -1   1 -20   40.40    3.50
   1  -1 -20   47.20    3.80
  -2   1  20   30.60    3.80
  -2  -1 -20   40.10    3.90
   2  -1  20   34.70    4.00
  -2   1  20   36.60    4.50
   2   1 -20   34.40    3.80
   2   1  20   30.20    3.90
  -2   1 -20   33.40    3.50
   2  -1 -20   34.00    3.70
  -2   1 -20   37.10    3.70
   2  -1 -20   38.20    3.80
  -2  -1  20   42.50    4.60
   2   1  20   39.10    4.50
   3   1 -20   73.49    5.30
  -3   1  20   63.29    5.30
  -3  -1 -20   69.49    5.00
   3  -1  20   67.69    5.30
  -3   1  20   69.99    5.70
   3  -1 -20   59.29    5.00
  -3   1 -20   62.69    4.80
   3   1  20   65.39    5.40
   3   1  20   70.99    5.80
   3  -1 -20   72.99    4.80
  -3  -1  20   76.69    5.60
   4  -1  20    9.30    2.50
   4   1 -20    7.60    2.10
  -4   1  20    9.20    2.30
  -4  -1 -20    8.00    2.10
   4   1  20   10.00    2.60
   4   1  20   14.60    3.70
   4  -1 -20    9.80    2.00
   4  -1 -20    8.30    2.20
  -4   1 -20    8.40    2.00
  -4  -1  20    5.90    1.90
   5   1 -20   92.19    6.50
  -5  -1 -20   88.29    6.30
   5  -1  20   92.39    6.10
  -5   1  20   78.99    6.40
  -5   1  20   89.29    5.90
   5   1  20   97.59    6.70
   5  -1 -20   77.59    6.20
  -5  -1  20   84.29    6.60
   6  -1  20   38.20    4.40
  -6  -1 -20   31.50    4.20
   6   1 -20   33.20    4.40
  -6   1  20   41.70    5.00
  -6  -1  20   38.70    4.90
   6   1  20   40.10    4.50
   6  -1 -20   41.00    4.80
  -6   1 -20   36.50    4.30
  -7  -1 -20   72.09    6.00
   7  -1  20   57.79    5.90
  -7   1  20   65.09    6.00
   7   1 -20   66.09    5.90
   7  -1 -20   74.19    6.10
   7   1  20   75.99    5.80
  -7   1 -20   63.69    5.60
  -7  -1  20   58.19    6.40
  -8  -1 -20   32.10    4.50
   8  -1  20   45.70    5.40
   8   1 -20   31.30    4.50
   8  -1 -20   38.40    5.00
   8   1  20   44.50    5.30
  -8   1 -20   42.00    5.20
  -8  -1  20   46.40    5.70
   0   2  20   35.60    4.30
   0  -2 -20   33.80    3.40
   0   2 -20   35.30    3.90
   0  -2 -20   34.00    3.60
   0  -2  20   38.40    4.30
   0   2  20   33.30    4.10
   1  -2  20    4.70    1.80
  -1  -2 -20    6.60    1.80
   1   2 -20    6.10    1.80
  -1   2  20    7.70    2.30
  -1   2  20    7.30    2.10
   1  -2 -20    6.00    1.70
   1   2  20    9.30    2.30
  -1   2 -20    7.20    1.90
   1  -2 -20    5.50    1.60
  -1   2 -20    5.80    1.80
  -1  -2  20    4.00    1.80
   1   2  20    6.70    2.10
  -2   2  20   83.99    6.10
   2  -2  20   80.89    5.90
   2   2 -20   86.09    6.00
  -2  -2 -20   89.09    5.90
  -2   2  20   78.09    6.10
   2  -2 -20   91.19    5.90
  -2   2 -20   78.89    5.40
   2   2  20   87.19    6.40
   2  -2 -20   87.39    5.70
   2   2  20   79.39    6.00
  -2   2 -20   89.19    5.70
  -2  -2  20   83.49    6.10
   3  -2  20   34.20    4.00
  -3  -2 -20   21.30    3.10
   3   2 -20   25.50    3.50
  -3   2  20   27.80    3.80
  -3   2  20   28.30    4.10
  -3  -2  20   30.80    4.00
  -3   2 -20   27.20    3.20
   3   2  20   29.90    4.10
   3  -2 -20   20.60    2.90
   3  -2 -20   28.90    3.60
   3   2  20   28.10    4.20
  -4   2  20   21.70    3.60
  -4  -2 -20   24.70    3.30
   4   2 -20   22.80    3.40
   4  -2  20   23.10    3.00
   4  -2 -20   18.50    3.10
   4   2  20   21.50    3.70
   4  -2 -20   23.20    3.10
  -4  -2  20   23.30    3.60
  -4   2 -20   23.30    3.20
   4   2  20   33.00    4.20
  -5   2  20   21.40    3.50
  -5  -2 -20   20.10    3.30
  -5   2  20   20.40    3.00
   5   2 -20   18.50    3.20
   5  -2  20   17.80    2.80
   5   2  20   14.60    3.90
  -5  -2  20   17.60    3.10
   5   2  20   23.70    3.70
   5  -2 -20   20.30    3.30
  -5   2 -20   18.20    3.00
   6   2 -20   10.60    2.70
  -6   2  20   13.00    2.70
  -6   2  20   11.80    2.80
  -6  -2 -20   10.90    2.70
   6  -2  20    8.20    2.40
  -6  -2  20   12.70    2.90
   6   2  20   16.30    4.10
  -6   2 -20   12.80    2.70
   6  -2 -20   13.00    2.70
   6   2  20   11.60    3.30
  -7   2  20   12.90    2.90
   7   2 -20   16.20    3.40
  -7  -2 -20   12.90    3.00
   7  -2  20   12.10    2.80
   7   2  20   11.50    2.90
   7  -2 -20   11.60    3.00
  -7  -2  20   17.10    3.50
  -7   2 -20   14.10    3.10
   8  -2  20   10.30    2.90
   8   2 -20    9.30    2.80
  -8  -2 -20    2.40    2.00
  -8   2 -20    9.20    2.70
   8  -2 -20   10.40    2.60
   8   2  20   14.40    3.10
  -8  -2  20   13.00    3.30
   0  -3 -20    0.10    1.10
   0   3  20    0.70    1.60
   0   3  20    0.80    1.20
   0  -3  20    2.20    1.60
   0   3 -20    1.60    1.30
  -1   3  20   27.20    3.60
  -1  -3 -20   26.30    3.30
  -1   3  20   28.40    3.70
   1   3 -20   30.30    3.60
   1  -3  20   21.20    3.20
   1   3  20   21.60    3.40
   1  -3 -20   22.90    3.20
   1  -3 -20   26.20    3.10
   1   3  20   31.90    4.00
  -1  -3  20   31.70    3.90
  -1   3 -20   26.40    3.50
   2   3 -20   14.90    2.70
  -2   3  20   15.50    2.90
  -2   3  20   14.10    2.80
   2  -3  20   20.30    3.10
  -2  -3 -20   18.70    2.90
   2  -3 -20   17.90    2.80
   2   3  20   15.50    3.00
   2  -3 -20   12.90    2.40
  -2   3 -20   17.50    2.70
   2   3  20   20.30    3.40
  -2  -3  20   18.20    3.10
   3  -3  20   15.70    2.60
   3  -3  20   15.20    2.80
  -3   3  20   14.40    2.90
  -3   3  20   18.40    3.20
  -3  -3 -20   11.60    2.40
   3   3 -20   15.40    2.70
   3  -3 -20    9.00    2.20
  -3  -3  20   14.80    2.80
  -3   3 -20   16.60    2.70
   3  -3 -20   17.40    2.70
   3   3  20   13.70    2.90
   3   3  20   17.30    3.30
  -3   3 -20   21.00    2.90
   4  -3  20   10.30    2.10
  -4   3  20    9.40    2.40
  -4  -3 -20    9.60    2.20
   4   3 -20    6.80    2.20
  -4  -3  20    6.10    2.20
  -4   3 -20    9.30    2.00
   4  -3 -20    9.40    2.30
   4   3  20   10.70    2.90
   4   3  20    9.50    2.60
   4  -3 -20    9.00    2.10
  -5   3  20    4.20    1.90
   5  -3  20    4.20    1.70
   5   3 -20    3.00    1.80
  -5  -3 -20    3.50    1.90
  -5   3  20    3.80    1.90
  -5  -3  20    3.90    2.10
  -5   3 -20    2.70    1.60
   5  -3 -20    4.90    2.10
   5   3  20    7.70    2.40
   5   3  20    5.50    2.60
   6   3 -20   37.50    4.80
  -6  -3 -20   41.30    5.00
  -6   3  20   43.00    4.70
   6  -3  20   42.70    4.60
  -6   3  20   52.19    5.60
  -6  -3  20   43.00    5.30
   6   3  20   44.60    5.30
   6  -3 -20   49.20    5.40
   6   3  20   47.50    6.40
  -6   3 -20   43.00    4.70
  -7  -3 -20    4.20    1.90
  -7   3  20    5.50    2.30
   7   3 -20    6.50    2.50
   7  -3  20    4.30    2.00
   7   3  20    4.50    2.60
  -7  -3  20    3.50    2.30
  -7   3 -20    6.30    2.40
   7  -3 -20    4.40    2.30
   8  -3  20   18.10    3.40
  -8  -3 -20   16.00    4.10
   8   3 -20   18.00    3.70
  -8   3  20   15.70    3.50
  -8   3 -20   17.30    3.30
   8   3  20   17.10    3.50
  -8  -3  20   21.00    4.20
   8  -3 -20   21.20    3.80
   0   4  20   43.50    4.70
   0   4  20   43.70    4.80
   0  -4 -20   47.90    4.70
   0  -4  20   39.30    4.50
   0   4 -20   43.10    4.50
   1  -4  20   43.20    4.50
  -1   4  20   41.30    4.80
  -1  -4 -20   44.20    4.50
  -1   4  20   36.30    4.20
   1   4 -20   32.70    4.00
   1  -4 -20   36.20    4.10
   1   4  20   39.20    4.50
   1  -4 -20   39.10    3.80
  -1  -4  20   48.80    4.30
  -1   4 -20   36.90    4.10
  -2   4  20   46.50    4.90
  -2   4  20   49.20    5.20
   2   4 -20   36.60    4.20
  -2  -4 -20   45.80    4.60
   2  -4  20   51.59    4.30
  -2  -4  20   36.90    4.40
   2  -4 -20   42.80    3.80
   2   4  20   51.49    5.10
   2   4  20   42.10    5.00
   2  -4 -20   42.80    4.40
  -2   4 -20   47.50    4.10
  -3   4  20   22.10    3.50
  -3  -4 -20   24.80    3.50
  -3   4  20   20.00    3.30
   3   4 -20   24.50    3.60
   3  -4  20   18.20    2.80
   3   4  20   29.80    4.00
   3   4  20   22.80    3.50
  -3  -4  20   25.50    3.60
  -3   4 -20   19.60    3.00
   3  -4 -20   19.60    2.90
   3  -4 -20   19.20    3.00
  -4  -4 -20    7.80    2.10
   4   4 -20    5.70    2.10
  -4   4  20    3.10    1.90
   4  -4  20    4.80    1.80
  -4  -4  20    4.20    2.10
   4   4  20    8.40    2.70
   4  -4 -20    8.00    2.10
   4   4  20    9.20    2.60
   4  -4 -20    4.10    1.60
   5  -4  20   17.10    2.90
  -5  -4 -20   12.90    2.70
  -5   4  20    8.90    2.40
  -5   4  20   13.70    2.90
   5   4 -20   11.10    2.70
  -5   4 -20   14.40    2.80
   5  -4 -20   10.50    2.40
   5  -4 -20   11.10    2.70
   5   4  20   14.50    3.60
   5   4  20   12.20    3.00
  -5  -4  20   10.10    2.50
  -6  -4 -20   14.90    3.30
   6  -4  20   26.90    3.90
   6   4 -20   20.50    3.60
  -6   4  20   28.00    3.90
  -6  -4  20   24.40    4.00
   6   4  20   25.50    4.10
  -6   4 -20   20.30    3.30
   6   4  20   19.00    4.20
   6  -4 -20   23.10    3.80
  -7  -4 -20   23.70    4.30
  -7   4  20   21.50    3.60
   7  -4  20   25.40    4.00
   7   4 -20   28.70    4.20
  -7   4 -20   18.30    3.50
  -7  -4  20   20.60    3.80
   7  -4 -20   27.10    4.30
   7   4  20   20.70    4.10
   0   5  20   -0.20    1.40
   0  -5 -20    0.20    1.20
   0   5 -20   -0.60    1.20
   0   5  20   -0.50    1.30
   0  -5  20    1.70    1.50
   1   5 -20    4.40    1.80
  -1  -5 -20    7.20    1.90
   1  -5  20    7.50    2.00
  -1   5  20    4.80    2.20
  -1   5  20    8.90    2.30
   1   5  20    4.80    1.90
   1  -5 -20    1.90    1.50
   1   5  20    4.60    1.90
  -1  -5  20    6.70    2.10
  -1   5 -20    3.40    1.80
   2  -5  20    2.20    1.80
   2   5 -20    5.00    2.00
  -2   5  20    5.10    2.00
   2  -5  20    2.20    1.50
  -2   5  20    4.80    2.00
  -2  -5 -20    8.00    2.10
   2  -5 -20    2.50    1.50
  -2   5 -20    5.20    2.00
  -2  -5  20    7.20    2.40
   2   5  20    3.10    2.00
   2  -5 -20    7.90    2.10
   2   5  20    8.10    2.50
   3   5 -20    2.20    1.60
  -3   5  20    0.60    1.30
  -3   5  20    0.60    1.60
  -3  -5 -20   -1.50    1.00
   3  -5  20   -1.50    1.10
   3   5  20   -1.90    1.50
   3  -5 -20   -0.20    1.30
  -3  -5  20   -2.00    1.20
  -3   5 -20   -0.50    1.30
   3  -5 -20    2.30    1.40
   3   5  20    0.10    1.80
   4   5 -20   11.80    2.60
  -4   5  20   15.20    3.10
  -4  -5 -20   20.20    3.30
   4  -5  20   12.70    2.50
   4  -5 -20   16.70    2.80
   4   5  20   18.50    3.40
  -4   5 -20   11.40    2.60
  -4  -5  20   12.30    3.10
   4   5  20   16.60    3.30
   4  -5 -20    7.80    2.40
   5   5 -20    0.60    1.80
  -5   5  20    4.80    2.10
  -5   5  20   -0.60    2.10
   5  -5  20    5.80    2.00
  -5  -5 -20    2.40    2.00
   5  -5 -20    5.70    2.20
   5   5  20    7.00    3.00
   5   5  20    2.80    2.50
  -5  -5  20    4.50    2.10
  -6   5  20    8.10    2.50
   6  -5  20   11.60    2.70
  -6  -5 -20    8.40    2.70
   6   5 -20    4.40    2.20
   6   5  20    8.70    3.30
   6  -5 -20   11.00    2.80
  -6  -5  20    7.40    2.60
   6   5  20    9.00    2.90
   7  -5  20    0.10    1.60
   7   5 -20   -0.70    1.60
  -7  -5 -20    2.40    2.70
  -7   5  20    2.60    2.30
  -7  -5  20    3.00    2.20
   7   5  20    0.40    2.30
   7  -5 -20    1.60    2.10
   7   5  20   -0.20    2.90
   0   6  20    6.30    2.20
   0   6 -20    6.50    2.30
   0  -6 -20    6.60    2.10
   0   6  20    1.90    1.70
   0  -6  20    4.40    2.00
   1  -6  20   83.79    6.10
  -1   6  20   85.39    6.00
   1   6 -20   96.79    6.80
  -1  -6 -20   83.59    6.20
  -1   6  20   78.79    6.50
   1   6  20   89.69    6.70
  -1  -6  20   95.49    6.60
   1  -6 -20   84.19    6.10
   1   6  20   87.19    6.20
  -1   6 -20   86.69    6.50
  -2   6  20   10.60    2.70
   2  -6  20   15.20    2.60
  -2  -6 -20   12.10    2.90
   2   6 -20    9.90    2.60
  -2   6  20   11.70    2.80
   2  -6 -20   13.70    2.70
  -2  -6  20   10.60    2.60
  -2   6 -20   14.50    2.80
   2   6  20   17.70    3.30
   2   6  20   13.00    2.80
   2  -6 -20   12.20    2.60
   3  -6  20   27.50    3.40
   3   6 -20   19.90    3.50
  -3   6  20   18.80    3.30
  -3  -6 -20   24.00    3.70
  -3   6  20   21.90    3.50
   3   6  20   20.60    3.70
  -3  -6  20   17.10    3.30
   3  -6 -20   22.00    3.30
   3   6  20   18.00    3.30
   3  -6 -20   20.80    3.30
  -3   6 -20   25.40    3.80
  -4   6  20    4.80    2.40
  -4  -6 -20    4.60    2.20
   4   6 -20    2.30    1.80
   4  -6  20    4.80    1.90
   4  -6 -20    6.00    2.00
  -4   6 -20    3.40    2.00
   4   6  20    5.70    2.40
  -4  -6  20    4.30    2.30
   4  -6 -20    6.00    2.30
   4   6  20    0.90    2.10
   5   6 -20   17.00    3.10
  -5  -6 -20   12.50    2.90
  -5   6  20   23.50    3.80
   5  -6  20   23.20    3.50
   5  -6 -20   20.80    3.40
   5   6  20   23.90    4.10
  -5  -6  20   22.40    4.10
   5   6  20   22.30    4.00
   6  -6  20    9.30    2.50
   6   6 -20    4.90    2.30
  -6   6  20   11.70    3.00
  -6  -6 -20    4.00    2.40
  -6  -6  20    5.90    2.20
   6   6  20    3.20    2.80
   6  -6 -20    7.70    2.60
   6   6  20    8.20    3.40
   7   6 -20   56.59    6.30
  -7   6  20   50.29    5.80
  -7  -6 -20   51.09    6.30
   7  -6  20   51.69    5.80
   7   6  20   51.89    6.40
   7  -6 -20   47.10    6.10
  -7  -6  20   34.10    5.20
   7   6  20   54.89    7.10
   0  -7 -20   -1.50    1.40
   0  -7  20   -0.60    1.40
   0   7  20    0.20    1.50
   0   7 -20   -0.30    1.40
   0   7  20   -1.00    1.40
  -1   7  20    7.10    2.10
  -1  -7 -20    4.10    1.80
   1  -7  20    8.20    2.20
  -1   7  20    5.60    2.10
   1   7 -20    5.90    2.30
   1   7  20    4.60    2.20
   1   7  20    7.20    2.30
  -1   7 -20    3.20    2.10
   1  -7 -20    4.30    2.00
  -1  -7  20    8.30    2.40
   2  -7  20   36.50    4.00
  -2  -7 -20   32.50    4.30
   2   7 -20   38.50    4.70
  -2   7  20   35.60    4.70
  -2   7  20   40.20    4.50
  -2  -7  20   32.70    4.20
   2   7  20   36.90    4.30
   2   7  20   37.80    4.80
  -2   7 -20   38.60    4.70
   2  -7 -20   29.30    4.00
   3  -7  20    8.30    2.30
  -3   7  20    4.30    2.10
   3   7 -20    8.00    2.60
  -3  -7 -20    4.20    2.00
  -3   7  20    5.80    2.40
  -3  -7  20    5.90    2.40
   3   7  20   -0.20    1.90
   3  -7 -20    3.60    1.80
   3  -7 -20    5.80    2.10
   3   7  20   -1.10    1.90
  -3   7 -20    4.30    2.20
  -4  -7 -20   24.40    4.00
   4  -7  20   23.00    3.60
   4   7 -20   24.10    4.00
   4  -7 -20   18.30    3.30
  -4  -7  20   27.20    4.30
   4   7  20   19.00    3.60
  -4   7 -20   24.80    3.80
   4  -7 -20   23.20    3.60
   4   7  20   24.00    4.20
   5  -7  20    9.50    2.40
   5   7 -20    6.00    2.40
  -5   7  20    4.20    2.30
  -5  -7 -20    6.20    2.60
   5  -7 -20    2.20    1.90
   5   7  20    3.80    2.70
  -5  -7  20    3.80    2.50
   5   7  20    8.90    3.10
  -5   7 -20    6.20    2.90
   6   7 -20   28.30    4.60
   6  -7  20   24.30    4.00
  -6  -7 -20   31.80    4.80
  -6   7  20   28.20    4.50
   6   7  20   38.90    5.80
   6  -7 -20   37.70    5.00
  -6  -7  20   33.20    4.80
   6   7  20   34.50    5.40
   0   8 -20   30.50    4.30
   0  -8 -20   40.90    4.80
   0  -8  20   32.00    4.40
   0   8  20   33.70    3.90
   0   8  20   33.50    4.60
   1  -8  20   25.80    3.50
  -1   8  20   31.50    3.70
  -1   8  20   27.90    4.30
  -1  -8 -20   22.10    3.60
   1   8 -20   27.00    4.20
  -1   8 -20   31.60    4.30
   1   8  20   21.40    3.20
  -1  -8  20   28.00    4.10
   1  -8 -20   30.60    4.30
   1   8  20   27.80    4.10
  -2   8  20   38.80    4.30
   2   8 -20   40.90    5.00
  -2  -8 -20   33.20    4.30
  -2   8  20   41.70    5.00
   2  -8  20   38.30    4.30
   2   8  20   37.60    4.40
   2   8  20   36.30    4.90
   2  -8 -20   42.50    4.90
  -2   8 -20   31.60    4.50
  -2  -8  20   29.30    4.30
  -3   8  20    5.90    2.10
   3  -8  20    4.30    2.00
  -3   8  20    3.10    2.50
   3   8 -20    3.00    2.10
  -3  -8 -20    3.80    2.30
   3   8  20    4.30    2.40
  -3  -8  20    7.20    2.60
   3   8  20    2.70    2.20
   3  -8 -20    3.90    2.20
  -3   8 -20    6.30    2.50
   4   8 -20   20.00    3.80
  -4  -8 -20   16.20    3.50
   4  -8  20   27.50    3.80
  -4   8 -20   30.40    4.50
   4   8  20   23.50    4.00
   4  -8 -20   24.10    3.60
  -4  -8  20   20.50    4.00
   4   8  20   24.00    4.50
   4  -8 -20   17.20    3.50
  -5  -8 -20    5.80    3.00
   5  -8  20    8.80    2.40
   5   8 -20   11.50    3.10
  -5   8  20   11.10    3.10
   5   8  20   12.80    3.70
  -5  -8  20    8.10    3.20
  -5   8 -20    7.80    2.80
  -5   8 -20    5.60    3.00
   5  -8 -20    3.70    2.60
   5   8  20    4.30    3.10
   0   9  20    0.40    1.40
   0   9 -20   -0.50    2.00
   0   9  20   -1.60    1.70
   0  -9 -20    0.80    1.90
   0  -9  20    1.20    1.90
  -1   9  20    0.30    1.20
  -1  -9 -20    2.90    2.20
   1  -9  20    3.60    1.90
  -1   9  20    3.80    2.20
   1   9 -20    0.30    2.10
   1  -9 -20    2.60    2.20
   1   9  20    5.20    2.40
  -1   9 -20    0.60    1.80
   1   9  20    2.60    1.70
  -1  -9  20    1.80    2.10
   2  -9  20    9.80    2.40
   2   9 -20    5.90    2.50
  -2   9  20    6.20    2.70
  -2  -9 -20    4.70    2.40
  -2   9  20    0.80    1.60
  -2  -9  20    3.60    2.30
   2  -9 -20    5.00    2.40
  -2   9 -20    0.80    2.20
   2   9  20    2.70    2.20
   2   9  20    5.40    2.00
   3  -9  20   28.40    4.00
   3   9 -20   30.00    4.60
  -3  -9 -20   20.00    3.80
   3   9  20   23.50    4.20
  -3   9 -20   24.40    4.10
  -3  -9  20   24.40    4.20
   3   9  20   22.70    3.80
   3  -9 -20   22.80    4.00
  -4  -9 -20    4.10    2.80
   4  -9  20   -0.30    1.90
   4   9 -20    5.20    2.30
   4   9  20    0.80    2.80
  -4   9 -20    1.10    2.50
  -4  -9  20    2.70    2.50
   4  -9 -20    4.10    2.50
   4  -9 -20    1.80    2.50
   4   9  20    3.50    2.80
   0  10  20   64.29    5.10
   0 -10  20   68.49    5.80
   0 -10 -20   67.89    6.50
   0  10 -20   53.89    6.50
   0  10  20   67.49    7.10
   1  10 -20    9.30    2.60
  -1  10  20    9.90    2.30
  -1  10  20    8.90    2.80
  -1 -10 -20   14.60    3.40
   1 -10  20    6.50    2.40
  -1  10 -20    7.20    2.90
   1  10  20    8.30    2.80
   1 -10 -20    5.00    2.90
   1  10  20    7.50    2.20
   2  10 -20   48.20    5.90
  -2  10  20   45.60    4.50
   2 -10  20   41.80    5.00
  -2 -10 -20   47.00    5.70
  -2 -10  20   45.80    5.50
  -2  10 -20   41.70    5.80
   2  10  20   51.09    4.90
   2 -10 -20   40.40    5.30
   2  10  20   37.50    5.40
   3 -10  20    2.40    1.80
  -3 -10 -20    0.60    2.50
   3  10 -20    0.20    1.80
  -3  10 -20    2.80    2.40
   3  10  20    3.40    2.20
  -3 -10  20    2.20    2.40
   3  10  20   -1.50    2.00
   3 -10 -20    4.10    3.00
   0   0 -21    1.20    1.10
   0   0  21    0.20    1.50
   0   0  21    1.40    1.50
   0   0 -21    3.60    1.40
  -1   0  21   -1.50    1.40
   1   0 -21    0.70    1.10
   1   0 -21    1.30    1.20
  -1   0  21   -0.30    1.10
   1   0  21    0.50    1.50
  -1   0 -21   -0.70    1.10
  -1   0 -21    1.20    1.20
   1   0  21    0.10    1.90
   2   0  21   13.30    3.30
  -2   0 -21   17.30    2.60
  -2   0  21   14.10    3.20
   2   0  21   18.50    3.20
  -2   0  21   13.70    2.70
   2   0 -21   15.50    2.60
   2   0 -21   14.90    2.40
  -3   0 -21   -2.00    0.90
   3   0 -21    1.70    1.50
  -3   0  21   -1.80    1.20
   3   0  21    0.50    1.50
   3   0 -21   -0.20    1.10
  -4   0  21    6.90    2.20
   4   0  21    7.90    2.40
  -4   0 -21    5.40    1.80
   4   0 -21   10.80    2.50
  -5   0  21   -1.10    1.30
   5   0 -21    1.30    1.70
  -5   0 -21    0.70    1.50
   6   0 -21   19.10    3.60
  -6   0 -21   20.00    3.30
   6   0  21    6.80    2.30
  -6   0  21   13.30    3.00
   7   0 -21    0.50    1.70
   7   0  21   -1.40    1.80
  -7   0 -21   -0.70    1.60
  -7   0  21   -0.40    1.80
   8   0  21    7.20    2.60
   8   0 -21    2.40    2.00
  -8   0 -21    6.00    2.40
   0   1  21    7.30    2.40
   0   1 -21   10.10    2.20
   0   1 -21    8.70    2.00
   0  -1  21   10.00    2.30
   0  -1 -21   16.00    2.50
   0   1  21    6.40    2.10
   0  -1 -21   10.30    2.00
  -1   1  21   47.80    5.00
   1   1 -21   38.50    4.20
   1   1 -21   58.69    4.10
   1  -1  21   50.99    5.10
  -1  -1 -21   46.00    3.90
  -1   1  21   45.30    5.20
  -1   1 -21   53.49    4.10
   1  -1 -21   44.50    3.80
  -1   1 -21   43.10    3.80
   1  -1 -21   46.40    3.90
  -1  -1  21   37.60    4.40
   1   1  21   48.90    5.30
   1   1  21   51.89    5.20
  -2   1  21    0.80    1.40
  -2  -1 -21    0.10    0.90
   2   1 -21    0.90    1.20
   2  -1  21    0.30    1.50
  -2   1  21   -1.70    1.50
   2   1  21   -2.20    1.80
   2  -1 -21    0.20    1.00
   2  -1 -21    0.30    1.20
   2   1  21   -0.70    1.30
  -2   1 -21    0.50    0.90
  -2  -1  21    0.90    1.40
  -3   1  21   14.40    2.90
   3  -1  21   27.20    3.60
   3   1 -21   16.60    2.80
  -3   1  21   18.80    3.60
  -3  -1 -21   20.00    3.00
   3  -1 -21   32.80    3.40
   3   1  21   17.50    3.20
  -3  -1  21   25.50    3.70
   3  -1 -21   24.50    3.30
   3   1  21   19.50    3.70
  -3   1 -21   18.20    2.80
  -4  -1 -21    4.40    1.80
   4  -1  21    3.50    2.10
   4   1 -21    2.00    1.50
  -4   1  21    8.20    2.30
   4  -1 -21    3.20    1.70
  -4  -1  21    4.50    1.90
   4   1  21    1.00    1.60
   4  -1 -21    6.50    1.70
  -4   1 -21    6.30    2.00
   5   1 -21    7.90    2.30
  -5   1  21    8.70    2.60
  -5  -1 -21    6.70    2.10
  -5   1  21   13.50    2.70
   5  -1 -21   11.70    2.90
  -5  -1  21   10.60    2.70
  -5   1 -21    9.00    2.50
   5   1  21   11.70    2.90
   6   1 -21    8.10    2.80
  -6  -1 -21    8.00    2.30
   6  -1  21   12.30    2.80
  -6   1  21   10.70    2.80
   6  -1 -21   10.20    2.70
  -6  -1  21    9.40    2.70
  -6   1 -21    8.40    2.40
  -7   1  21   11.80    3.30
   7  -1  21    7.90    2.70
  -7  -1 -21   11.30    2.70
   7   1 -21    6.30    2.30
   7   1  21   12.00    3.20
  -7   1 -21   14.50    3.20
   7  -1 -21    8.20    2.60
  -7  -1  21   11.00    3.10
  -8  -1 -21    3.70    2.50
   8  -1  21    9.20    2.70
   8   1 -21    9.00    2.60
  -8   1 -21    5.20    2.40
  -8  -1  21    3.10    2.60
   8   1  21    3.80    2.40
   8  -1 -21    4.20    2.30
   0  -2  21   -0.90    1.40
   0   2 -21   -0.20    0.90
   0   2  21    1.40    1.70
   0  -2 -21   -0.20    1.00
   0  -2 -21   -0.10    1.00
   0   2  21   -0.30    1.20
   1  -2  21    4.40    2.00
  -1  -2 -21    6.00    1.80
  -1   2  21    4.90    2.10
   1   2 -21    3.20    1.70
  -1   2  21    5.00    2.10
  -1  -2  21    3.10    1.80
   1  -2 -21    3.80    1.60
   1   2  21    4.40    2.00
   1   2  21    6.60    2.30
   1  -2 -21    3.50    1.40
  -1   2 -21    1.30    1.20
  -1   2 -21    2.20    2.20
   2  -2  21    4.70    2.00
  -2   2  21    1.90    1.70
  -2  -2 -21    4.90    1.70
  -2   2  21    2.00    1.80
   2   2 -21    7.30    2.10
   2  -2 -21    4.70    1.70
   2   2  21    7.90    2.60
  -2   2 -21    5.10    1.70
  -2  -2  21    2.70    1.80
  -2   2 -21    4.00    1.70
   2   2  21    2.70    1.70
   2  -2 -21    5.40    1.60
   3   2 -21    8.60    2.10
  -3   2  21    7.00    2.30
   3  -2  21    8.70    2.30
  -3  -2 -21    7.80    2.00
  -3   2  21    7.90    2.60
   3   2  21    3.30    2.40
   3  -2 -21    6.20    1.70
   3   2  21    7.70    2.40
  -3   2 -21    4.40    1.70
  -3  -2  21    8.70    2.30
   3  -2 -21    2.90    1.70
  -4  -2 -21   28.20    3.70
  -4   2  21   25.60    4.00
   4   2 -21   23.50    3.70
  -4   2 -21   24.50    3.30
   4  -2 -21   31.60    4.00
  -4  -2  21   24.60    3.70
   4   2  21   34.80    4.90
   4  -2 -21   30.10    3.50
   4   2  21   34.00    4.50
   5  -2  21    0.70    1.40
  -5  -2 -21    2.20    1.70
  -5   2  21    3.40    1.90
   5   2 -21    0.00    1.60
  -5   2  21    1.20    1.60
  -5   2 -21    0.90    1.40
   5   2  21   -0.70    2.00
   5  -2 -21    1.80    1.70
  -5  -2  21   -1.60    1.80
   6  -2  21   17.00    2.90
  -6   2  21    8.60    2.50
  -6   2  21   10.60    2.80
  -6  -2 -21    8.30    2.40
   6   2 -21   10.20    2.70
  -6  -2  21   10.60    2.80
  -6   2 -21    8.10    2.40
   6   2  21   11.60    3.40
   6  -2 -21   14.80    3.10
  -7  -2 -21    3.90    2.00
   7   2 -21    0.10    1.70
   7  -2  21    4.40    2.30
  -7  -2  21   -0.20    1.90
  -7   2 -21    3.00    2.00
   7  -2 -21    0.90    1.90
   0   3  21   85.19    6.40
   0   3 -21   86.59    6.00
   0   3  21   94.59    6.70
   0  -3 -21   87.69    5.90
   0  -3  21   84.49    6.20
  -1   3  21   60.89    5.10
  -1  -3 -21   52.49    4.50
   1   3 -21   68.39    5.10
  -1   3  21   47.70    4.70
   1  -3 -21   57.49    4.50
   1   3  21   54.59    5.10
   1  -3 -21   68.49    4.90
  -1  -3  21   62.89    5.10
   1   3  21   63.79    5.30
  -1   3 -21   62.49    4.90
  -2   3  21   23.10    3.70
  -2  -3 -21   28.00    3.70
   2   3 -21   31.20    3.90
   2  -3  21   31.70    3.90
  -2   3  21   26.80    3.70
  -2   3 -21   26.10    3.50
   2  -3 -21   33.60    3.80
  -2  -3  21   25.30    3.60
   2   3  21   32.10    4.40
   2  -3 -21   28.60    3.50
   2   3  21   29.90    4.10
  -3   3  21   35.10    4.50
  -3  -3 -21   30.70    3.80
   3  -3  21   27.80    3.80
   3   3 -21   23.70    3.50
  -3   3  21   31.30    4.20
  -3  -3  21   27.20    3.90
   3   3  21   26.60    4.20
   3   3  21   32.80    4.30
   3  -3 -21   31.00    3.70
   3  -3 -21   30.10    3.80
   4   3 -21    6.60    2.10
  -4  -3 -21    8.40    2.30
   4  -3  21   13.50    2.70
  -4   3  21   10.10    2.50
   4  -3 -21    7.60    2.10
  -4   3 -21    9.70    2.30
   4  -3 -21    7.00    2.10
  -4  -3  21   10.90    2.70
   4   3  21    6.80    2.40
   4   3  21    8.70    2.80
  -5   3  21    8.50    2.40
   5  -3  21   15.50    2.80
   5   3 -21    5.50    2.20
  -5   3  21   10.20    2.80
  -5  -3 -21    3.00    2.00
   5  -3 -21    9.70    2.50
   5   3  21   15.00    3.30
   5   3  21   11.40    3.50
  -5   3 -21   13.70    2.80
  -5  -3  21   13.10    3.20
  -6   3  21   17.30    3.20
   6  -3  21   16.90    3.30
  -6   3  21   24.70    3.90
   6   3 -21   23.20    3.70
  -6  -3 -21   25.20    4.00
  -6  -3  21   18.90    3.70
   6   3  21   20.10    3.90
   6  -3 -21   18.00    3.50
  -6   3 -21   27.10    3.90
   7   3 -21   17.40    3.40
  -7  -3 -21   18.50    3.40
   7  -3  21   17.80    3.40
  -7   3  21   17.40    3.30
  -7   3 -21   16.30    3.30
  -7  -3  21   15.30    3.60
   7  -3 -21   16.80    3.60
   0   4 -21    0.40    1.50
   0  -4 -21    0.50    1.20
   0   4  21   -2.50    1.50
   0   4  21    0.40    1.30
   0  -4  21    1.40    1.60
   1  -4  21    4.90    2.00
  -1   4  21    5.60    2.20
  -1   4  21    8.50    2.40
  -1  -4 -21    8.50    2.20
   1   4 -21    6.50    2.20
  -1  -4  21    4.50    1.90
   1   4  21   10.00    2.60
   1  -4 -21    3.60    1.70
  -1   4 -21    6.10    2.00
   1  -4 -21    8.80    2.30
   1   4  21    7.00    2.30
  -2   4  21    1.90    1.80
   2   4 -21    2.30    1.50
   2  -4  21    2.30    1.60
  -2  -4 -21    2.20    1.30
  -2   4  21   -1.20    1.20
  -2   4 -21    2.90    1.60
   2   4  21   -2.00    1.60
  -2  -4  21    0.10    1.50
   2  -4 -21    1.40    1.30
   2  -4 -21    0.50    1.10
   2   4  21    2.20    1.90
  -3   4  21   11.40    2.80
  -3   4  21    8.80    2.50
  -3  -4 -21    9.10    2.40
   3   4 -21    3.50    1.90
   3   4  21    6.40    2.50
  -3  -4  21    9.80    2.70
  -3   4 -21   10.50    2.50
   3   4  21   11.00    3.00
   3  -4 -21    7.40    2.00
   3  -4 -21    2.20    1.60
  -4   4  21   10.00    2.80
   4  -4  21    8.40    2.20
   4   4 -21    6.50    2.20
  -4  -4 -21    8.90    2.30
   4  -4 -21   10.30    2.30
   4   4  21   10.80    3.00
   4  -4 -21    7.10    2.10
  -4  -4  21   10.20    2.80
   4   4  21   13.50    3.00
  -5  -4 -21    5.00    2.00
   5   4 -21    1.40    1.60
  -5   4  21    4.10    2.00
  -5   4  21    2.50    2.00
   5  -4  21    5.40    2.00
  -5  -4  21    4.00    2.10
   5  -4 -21    4.60    2.00
   5   4  21    5.50    2.60
   5   4  21    6.30    2.80
   5  -4 -21    7.10    2.10
   6  -4  21    6.50    2.20
  -6  -4 -21   10.60    3.00
   6   4 -21    1.50    2.00
  -6   4  21    3.50    2.10
  -6  -4  21    1.00    1.90
   6   4  21    8.70    3.40
  -6   4 -21    5.40    2.40
   6   4  21    2.40    2.40
   6  -4 -21    4.00    2.20
   7   4 -21   10.20    2.70
  -7  -4 -21   13.50    3.70
   7  -4  21    8.80    2.60
  -7   4  21   17.00    3.60
  -7  -4  21   23.10    4.20
  -7   4 -21   14.00    3.40
   7   4  21   13.20    4.10
   7  -4 -21   16.00    3.60
   0  -5 -21  162.78    9.50
   0  -5  21  166.58    9.60
   0   5  21  159.68    9.70
   0   5  21  163.38   10.10
   0   5 -21  167.08    9.90
  -1   5  21   11.40    2.80
  -1  -5 -21    6.70    2.00
  -1   5  21    7.30    2.40
   1  -5  21   12.30    2.60
   1   5 -21    8.30    2.40
   1   5  21    9.30    2.70
   1  -5 -21    8.60    2.20
  -1  -5  21   12.80    2.80
   1   5  21    9.40    2.50
  -1   5 -21    6.50    2.00
  -2   5  21   15.30    3.10
   2  -5  21   25.90    4.30
  -2  -5 -21   20.90    3.20
  -2   5  21   18.40    3.20
   2   5 -21   23.90    3.80
   2   5  21   18.80    3.40
   2  -5 -21   18.10    2.90
  -2   5 -21   23.80    3.70
  -2  -5  21   17.20    3.30
   2   5  21   19.90    3.50
   2  -5 -21   28.40    3.60
   3  -5  21   12.10    2.50
  -3  -5 -21   14.60    2.80
  -3   5  21   12.40    2.90
  -3   5  21   18.90    3.40
   3   5 -21   12.30    2.80
  -3   5 -21   20.00    3.30
   3  -5 -21   15.30    2.80
  -3  -5  21   13.20    3.00
   3  -5 -21   14.60    2.80
   3   5  21   17.10    3.40
   3   5  21   18.90    3.40
   4   5 -21    9.80    2.70
  -4   5  21   10.10    2.60
   4  -5  21    8.70    2.40
  -4  -5 -21    7.40    2.50
  -4  -5  21   11.30    3.00
   4   5  21   11.70    3.20
   4  -5 -21   11.30    2.80
   4  -5 -21   10.00    2.40
   4   5  21    9.20    2.90
   5   5 -21   18.90    3.40
  -5   5  21   13.20    2.90
  -5   5  21   20.50    3.90
   5  -5  21   16.60    3.10
  -5  -5 -21   16.20    3.40
  -5  -5  21   14.70    3.50
   5   5  21   19.40    3.70
   5  -5 -21   15.20    3.10
   5  -5 -21   16.90    3.10
   5   5  21   17.20    3.80
   6   5 -21   15.60    3.20
  -6  -5 -21   20.70    4.00
  -6   5  21   19.60    3.70
   6  -5  21   21.00    3.60
  -6  -5  21   20.10    3.80
   6   5  21   24.60    4.70
   6  -5 -21   23.90    4.20
   6   5  21   24.50    4.30
  -7   5  21    1.60    2.60
   7  -5  21    4.10    2.10
   7   5 -21   -1.40    1.60
  -7  -5 -21    4.80    3.20
   7   5  21    0.40    2.50
   7  -5 -21    2.90    2.40
   7   5  21    7.10    4.30
  -7  -5  21    2.10    2.20
   0   6  21   -0.80    1.40
   0   6  21   -3.00    1.50
   0   6 -21   -2.00    1.40
   0  -6  21    0.40    1.40
   0  -6 -21   -0.20    1.40
   1  -6  21    4.30    2.00
   1   6 -21    3.60    2.00
  -1   6  21    2.10    1.60
  -1  -6 -21    4.10    1.70
  -1   6  21    0.70    1.70
   1  -6 -21    2.50    1.50
  -1  -6  21   -0.70    1.50
   1   6  21    1.70    1.90
   1   6  21    1.10    1.90
  -1   6 -21    1.80    1.80
  -2   6  21    4.30    2.00
   2   6 -21    1.10    1.60
  -2  -6 -21    3.30    1.90
  -2   6  21    0.00    1.70
  -2  -6  21    1.10    1.80
   2   6  21    0.00    1.80
   2   6  21    1.10    1.80
   2  -6 -21    2.00    1.50
  -2   6 -21   -0.10    1.60
   3   6 -21    3.80    1.90
  -3   6  21    6.40    2.40
  -3   6  21    5.60    2.20
   3  -6  21    4.10    1.90
  -3  -6 -21    9.20    2.50
  -3  -6  21    8.50    2.70
   3   6  21    1.50    2.10
   3  -6 -21    7.10    2.00
  -3   6 -21    5.80    2.30
   3   6  21    3.90    2.20
   3  -6 -21    1.60    1.70
  -4   6  21    1.10    2.00
   4  -6  21    1.20    1.60
   4   6 -21    2.60    2.10
  -4  -6 -21    0.20    1.60
   4  -6 -21   -0.80    1.40
   4  -6 -21    3.00    1.80
   4   6  21    0.00    1.80
  -4   6 -21    0.30    1.90
  -4  -6  21    1.70    1.90
   4   6  21    1.00    2.20
   5  -6  21    5.00    2.20
  -5  -6 -21    2.90    2.40
  -5   6  21    6.30    2.40
   5   6 -21    4.60    2.10
   5   6  21    5.60    3.00
   5  -6 -21    5.40    2.30
   5   6  21    2.50    2.30
  -5  -6  21    7.00    2.80
  -6   6  21    2.10    2.40
   6  -6  21    7.20    2.40
  -6  -6 -21    4.60    2.90
   6   6 -21    2.90    2.00
   6  -6 -21    4.90    2.40
   6   6  21    9.10    3.70
  -6  -6  21    6.90    2.60
   6   6  21    3.20    2.80
   0   7  21   75.79    6.10
   0  -7  21   81.69    6.30
   0   7  21   87.39    6.90
   0   7 -21   91.09    6.90
   0  -7 -21   87.49    6.50
   1   7 -21   23.20    4.00
  -1   7  21   16.10    3.40
  -1   7  21   19.60    3.30
  -1  -7 -21   21.80    3.60
   1   7  21   20.70    3.50
   1  -7 -21   16.10    3.30
  -1  -7  21   19.90    3.50
  -1   7 -21   16.80    3.50
   1   7  21   19.70    3.70
  -2  -7 -21   56.79    5.70
   2  -7  21   59.99    5.10
   2   7 -21   65.99    5.80
  -2   7  21   68.09    5.60
  -2   7  21   69.29    6.10
  -2  -7  21   69.89    5.90
  -2   7 -21   63.89    6.40
   2   7  21   68.49    5.90
   2  -7 -21   63.69    5.40
   2   7  21   53.19    5.80
  -3   7  21    3.20    2.00
   3  -7  21    1.30    1.60
  -3  -7 -21    0.20    1.90
   3   7 -21   -0.90    1.50
  -3   7  21    0.80    1.90
   3   7  21    1.00    2.10
  -3   7 -21    1.60    1.80
   3  -7 -21    2.20    2.00
   3   7  21    2.70    2.20
  -3  -7  21    3.20    2.20
   3  -7 -21    1.20    1.70
   4  -7  21   27.00    3.70
   4   7 -21   26.60    4.10
  -4  -7 -21   24.00    3.90
   4  -7 -21   23.90    3.80
  -4   7 -21   20.90    3.90
   4  -7 -21   25.20    3.70
  -4  -7  21   24.70    4.30
   4   7  21   19.80    3.90
   4   7  21   22.20    4.10
  -5   7  21   16.90    3.50
   5   7 -21   17.00    3.50
   5  -7  21   10.00    2.80
  -5  -7 -21   15.20    3.80
   5  -7 -21   15.50    3.40
   5   7  21   15.30    3.90
   5   7  21    9.60    3.60
  -5  -7  21   11.40    3.40
   0   8 -21   -1.40    1.70
   0  -8  21    0.20    2.30
   0   8  21   -1.00    1.60
   0   8  21    1.00    1.70
   0  -8 -21    0.90    1.70
  -1  -8 -21    1.50    1.70
   1   8 -21    0.60    1.80
  -1   8  21    5.40    2.20
  -1   8  21    1.40    1.60
  -1  -8  21   -0.30    1.90
  -1   8 -21    3.30    2.30
   1   8  21    3.70    2.00
   1  -8 -21    6.40    2.50
   1   8  21    1.60    2.00
  -2  -8 -21   12.90    3.10
  -2   8  21    8.10    3.00
  -2   8  21   10.00    2.40
   2  -8  21    8.50    2.50
   2   8 -21    4.10    2.20
   2  -8 -21   10.50    2.80
  -2   8 -21   13.80    3.20
  -2  -8  21    7.90    2.70
   2   8  21   14.70    3.20
   2   8  21    8.40    2.90
  -3   8  21   19.20    3.90
   3  -8  21   16.10    3.00
  -3  -8 -21   14.20    3.30
  -3   8  21   18.40    3.40
   3   8 -21   18.20    3.60
   3  -8 -21   15.80    3.10
  -3  -8  21   11.70    3.20
  -3   8 -21   21.60    3.90
   3   8  21   19.80    3.60
   3   8  21   17.80    3.60
   4  -8  21    8.00    2.50
  -4  -8 -21   11.90    3.60
   4   8 -21   18.10    3.40
   4   8  21   17.00    4.00
   4  -8 -21   15.20    3.00
  -4   8 -21   17.80    3.70
  -4  -8  21   14.90    3.70
   4   8  21   20.20    4.10
   4  -8 -21   12.70    3.20
  -5  -8 -21    0.60    3.00
   5  -8  21    2.10    2.00
  -5   8  21    2.00    2.90
   5   8 -21    6.30    2.50
   5   8  21    0.90    3.40
  -5   8 -21    6.80    3.20
   5   8  21    1.10    3.20
  -5  -8  21    1.10    2.60
   5  -8 -21    4.00    2.80
   0   9  21   92.89    7.50
   0   9  21   83.69    6.20
   0   9 -21   97.19    7.70
   0  -9 -21   95.39    7.40
  -1   9  21    9.00    2.30
   1  -9  21    6.80    2.60
   1   9 -21    5.00    2.50
  -1  -9 -21    5.20    2.60
  -1   9  21    6.50    2.70
  -1   9 -21    2.40    2.40
   1  -9 -21    7.60    2.60
   1   9  21    7.60    2.20
   1   9  21    5.80    2.50
  -1  -9  21    8.80    2.80
   2   9 -21   26.20    4.20
  -2   9  21   26.90    4.70
  -2  -9 -21   24.30    4.10
  -2   9  21   19.30    3.10
   2  -9  21   19.40    3.50
   2   9  21   14.20    3.70
   2  -9 -21   18.70    3.70
  -2   9 -21   18.00    3.90
   2   9  21   20.30    3.40
  -2  -9  21   22.00    3.90
   3  -9  21    4.60    2.00
  -3  -9 -21    8.10    3.10
   3   9 -21    8.50    2.40
  -3   9 -21    2.80    2.70
   3   9  21    1.80    2.30
   3   9  21    3.70    2.70
  -3  -9  21    1.90    2.40
   3  -9 -21    1.80    2.50
   4  -9  21   12.60    3.10
  -4  -9 -21   17.40    4.20
   4   9 -21   14.70    3.40
   4   9  21   14.20    4.10
  -4  -9  21   12.70    3.70
   4   9  21    8.00    4.00
   4  -9 -21   13.60    3.90
  -4   9 -21    7.90    3.00
   0  10 -21   -0.20    2.60
   0  10  21    0.50    1.50
   0  10  21   -1.30    1.90
   0 -10 -21    1.60    2.50
   1 -10  21   11.70    3.10
  -1  10  21   10.70    3.40
   1  10 -21   13.50    3.40
  -1 -10 -21   15.90    3.90
  -1  10  21   18.80    2.90
   1 -10 -21   12.10    3.50
  -1  10 -21   16.70    4.10
   1  10  21   12.30    2.80
   1  10  21   17.10    3.80
  -2 -10 -21   18.20    4.20
  -2  10  21    9.20    2.60
   2  10 -21   12.50    3.30
   2 -10  21   15.60    3.30
  -2  10 -21   16.90    4.20
   2  10  21   12.40    3.00
   2 -10 -21   11.90    3.80
   2  10  21   14.50    3.60
  -2 -10  21   10.20    3.30
   0   0  22  172.38   10.60
   0   0 -22  148.79    8.50
   0   0 -22  151.08    8.40
   0   0  22  176.78   10.40
   1   0 -22    1.70    1.30
  -1   0 -22   -0.70    1.00
   1   0  22   -1.20    2.60
   1   0  22    0.00    1.50
  -1   0  22    1.00    2.10
  -1   0  22   -0.50    1.40
   1   0 -22   -0.40    0.90
  -2   0  22   46.70    5.30
   2   0 -22   76.79    5.10
   2   0  22   71.79    5.60
  -2   0  22   70.29    6.70
  -2   0 -22   76.69    5.40
   2   0 -22   63.99    5.20
   3   0 -22    1.10    1.30
   3   0  22   -0.10    1.60
  -3   0  22    0.30    1.40
  -3   0 -22    0.20    1.20
  -4   0 -22   68.29    5.60
   4   0 -22   78.29    5.90
  -4   0  22   72.49    6.00
   4   0  22   76.69    6.20
  -5   0 -22    0.70    1.60
   5   0 -22    0.70    1.60
  -5   0  22   -1.90    1.50
  -6   0  22   34.00    4.70
   6   0 -22   35.10    4.80
  -6   0 -22   37.60    4.60
   7   0 -22   -1.60    1.20
  -7   0 -22    1.60    1.70
  -7   0  22   -0.80    1.90
   0   1  22   -1.20    1.60
   0  -1  22   -2.40    1.00
   0  -1 -22    0.70    1.10
   0   1 -22    0.50    1.20
   0  -1 -22    0.70    1.30
   0   1  22   -2.40    1.20
   0   1 -22    0.60    1.20
  -1   1  22    1.00    1.60
   1   1 -22    1.90    1.60
  -1   1  22    5.20    2.40
  -1  -1 -22    2.60    1.30
   1  -1  22    1.50    1.80
  -1   1 -22    2.70    1.40
   1  -1 -22    3.60    1.50
  -1   1 -22    1.60    1.40
   1  -1 -22    0.90    1.30
  -1  -1  22    1.90    1.60
   1   1  22    0.00    1.90
   1   1  22    2.20    1.80
  -2   1  22   11.80    3.00
   2  -1  22    7.10    2.40
  -2   1  22    7.80    2.40
  -2  -1 -22    6.10    1.80
   2   1 -22    3.60    1.80
   2  -1 -22    6.50    1.70
   2   1  22    6.40    2.70
  -2  -1  22    5.20    2.10
   2   1  22    5.80    2.20
   2  -1 -22    6.40    1.80
  -2   1 -22    7.30    1.90
  -3  -1 -22   16.20    2.80
   3   1 -22   12.40    2.70
  -3   1  22   13.10    2.80
   3  -1  22   11.80    2.80
   3   1  22   15.40    3.20
   3  -1 -22   17.30    3.00
   3   1  22   23.60    4.30
   3  -1 -22   18.40    2.80
  -3  -1  22   13.60    2.80
  -3   1 -22   15.70    2.60
   4   1 -22    5.60    2.10
  -4   1  22    6.10    2.30
   4  -1  22    9.10    2.50
  -4  -1 -22    7.40    2.10
  -4  -1  22    6.90    2.20
   4   1  22    4.80    2.30
   4  -1 -22    3.60    2.00
   4  -1 -22    6.40    2.00
  -4   1 -22    7.50    2.10
   5   1 -22   25.30    4.00
  -5  -1 -22   30.30    4.20
  -5   1  22   35.30    4.70
  -5  -1  22   27.30    4.30
   5   1  22   25.10    4.10
  -5   1 -22   33.90    4.10
   5  -1 -22   30.70    4.40
  -6   1  22    3.90    2.20
   6   1 -22    2.10    2.00
  -6  -1 -22    4.60    2.10
  -6   1 -22    4.70    2.20
   6  -1 -22    3.60    2.20
  -6  -1  22    6.40    2.40
  -7  -1 -22   10.10    2.70
  -7   1  22   10.80    3.30
   7  -1  22   10.40    3.00
   7   1 -22   11.30    2.70
   7  -1 -22    7.30    2.50
  -7  -1  22    9.70    3.10
  -7   1 -22    8.50    2.70
   0  -2  22   19.70    3.30
   0  -2 -22   15.80    2.70
   0   2  22   18.60    3.30
   0   2 -22   18.30    3.00
   0   2  22   18.20    3.30
  -1  -2 -22   36.50    4.00
   1   2 -22   33.60    3.90
  -1   2  22   50.39    5.40
  -1   2  22   40.20    4.80
   1  -2  22   38.50    4.60
  -1  -2  22   39.00    4.60
   1   2  22   34.50    4.70
   1   2  22   32.70    4.50
   1  -2 -22   30.30    3.60
  -1   2 -22   34.60    3.90
   1  -2 -22   34.30    3.80
  -2  -2 -22   66.29    5.20
  -2   2  22   72.79    6.80
  -2   2  22   66.59    5.70
   2  -2  22   63.19    5.50
   2   2 -22   68.59    5.30
  -2   2 -22   66.59    5.10
   2  -2 -22   65.59    5.10
  -2  -2  22   61.39    5.70
  -2   2 -22   60.99    5.50
   2  -2 -22   67.89    5.00
   2   2  22   84.49    6.10
   2   2  22   81.49    6.20
   3  -2  22   11.30    2.70
   3   2 -22   13.70    2.70
  -3  -2 -22   11.00    2.50
  -3   2  22   13.30    3.10
  -3   2  22    9.40    2.60
   3   2  22   17.80    3.70
   3  -2 -22   11.40    2.30
   3   2  22    6.50    2.30
  -3  -2  22   10.30    2.70
  -3   2 -22   13.90    2.60
   3  -2 -22   14.40    2.80
  -4   2  22   25.50    4.10
   4   2 -22   36.60    4.60
  -4  -2 -22   36.40    4.30
   4  -2 -22   36.90    4.50
  -4   2 -22   36.00    4.30
  -4  -2  22   37.50    4.70
   4   2  22   38.50    4.80
   4  -2 -22   33.80    4.00
   4   2  22   46.70    5.80
  -5   2  22   18.00    3.50
  -5   2  22   18.40    3.20
  -5  -2 -22   13.00    2.90
   5   2 -22   16.10    3.20
  -5   2 -22   18.70    3.10
  -5  -2  22   26.10    3.90
   5  -2 -22   16.10    3.20
   5   2  22   15.50    3.50
  -6  -2 -22   11.80    2.90
  -6   2  22   11.70    3.00
  -6   2  22    6.50    2.60
   6   2 -22   13.50    3.10
   6  -2  22   16.90    3.30
  -6   2 -22    7.90    2.50
  -6  -2  22   12.70    3.30
   6  -2 -22   11.80    2.90
   7   2 -22   13.00    3.10
   7  -2  22   19.80    3.50
  -7  -2 -22   18.80    3.60
  -7   2 -22   22.50    3.70
  -7  -2  22   20.10    3.80
   7  -2 -22   12.40    3.30
   0  -3  22    1.40    1.70
   0   3  22   -2.60    1.40
   0  -3 -22    0.20    1.10
   0   3 -22   -1.30    1.10
   0   3  22   -0.60    1.30
  -1  -3 -22    2.20    1.40
   1  -3  22    0.00    1.50
   1   3 -22    2.00    1.60
  -1   3  22    0.50    1.50
  -1   3  22    0.50    1.80
   1  -3 -22    0.00    1.00
   1   3  22   -0.40    1.50
   1  -3 -22    0.70    1.40
  -1   3 -22    1.70    1.50
   1   3  22    1.20    2.10
  -1  -3  22    2.10    1.70
  -2   3  22    2.20    1.70
   2  -3  22   -3.40    1.10
   2   3 -22    0.50    1.60
  -2  -3 -22   -2.00    1.10
  -2   3  22   -2.10    1.60
   2  -3 -22    2.20    1.30
  -2  -3  22   -0.50    1.50
   2   3  22   -0.20    1.80
  -2   3 -22    0.00    1.40
   2   3  22    0.90    1.90
   2  -3 -22    1.30    1.40
   3   3 -22   11.20    2.50
   3  -3  22   12.10    2.90
  -3   3  22   16.20    3.30
  -3  -3 -22   10.60    2.40
  -3   3  22    8.20    2.40
  -3  -3  22    9.90    2.60
   3  -3 -22   11.50    2.40
   3   3  22    7.10    2.60
   3  -3 -22    6.80    2.20
   3   3  22   11.30    3.10
  -4   3  22    6.60    2.50
  -4  -3 -22    4.20    1.90
   4   3 -22    3.90    2.10
   4  -3 -22    6.00    2.20
  -4  -3  22    4.20    1.80
   4   3  22    6.40    3.00
   4   3  22    3.90    2.40
   4  -3 -22    4.20    1.80
  -5  -3 -22   19.70    3.40
  -5   3  22   13.10    3.20
   5  -3  22   15.90    4.80
   5   3 -22   19.60    3.50
  -5   3  22   14.70    2.90
   5  -3 -22   20.40    3.30
   5   3  22   12.50    3.80
   5  -3 -22   17.60    3.30
  -5  -3  22   18.70    3.50
  -5   3 -22   27.50    3.80
   5   3  22   17.90    3.70
  -6   3  22    2.20    2.10
  -6  -3 -22    2.00    1.80
   6   3 -22    2.50    1.60
   6  -3  22    0.90    1.70
  -6   3  22    2.10    2.20
  -6   3 -22    3.80    2.20
   6   3  22    2.50    2.30
  -6  -3  22    4.90    2.30
   6  -3 -22    1.80    2.00
  -7  -3 -22    2.20    2.00
  -7   3  22    8.40    2.80
   7   3 -22    6.30    2.30
   7  -3  22    7.40    2.80
  -7  -3  22    7.30    2.60
   7  -3 -22    5.50    2.60
  -7   3 -22    7.30    2.80
   0   4 -22    9.20    2.50
   0   4  22   10.10    2.70
   0   4  22    6.30    2.40
   0  -4 -22    6.80    2.00
   0  -4  22   13.60    2.90
  -1  -4 -22   72.89    5.60
  -1   4  22   59.39    6.00
  -1   4  22   84.59    6.40
   1  -4  22   85.39    6.10
   1   4 -22   67.59    5.50
   1   4  22   76.39    6.40
   1  -4 -22   71.39    5.50
  -1  -4  22   67.89    5.80
  -1   4 -22   83.69    6.00
   1   4  22   79.29    6.20
   2  -4  22   -0.70    1.70
  -2   4  22    2.60    1.60
  -2   4  22    1.20    2.00
   2   4 -22    1.80    1.70
  -2  -4 -22    1.60    1.50
   2  -4 -22    3.20    1.60
   2   4  22   -1.60    1.50
   2  -4 -22    4.00    1.70
  -2  -4  22    2.40    2.00
   2   4  22   -0.40    1.80
  -2   4 -22    0.60    1.30
   3   4 -22   49.10    5.30
  -3   4  22   41.20    5.10
  -3  -4 -22   42.20    4.80
  -3   4  22   51.99    5.50
   3  -4 -22   47.80    4.90
   3   4  22   48.80    5.50
  -3  -4  22   40.70    5.00
  -3   4 -22   51.89    5.50
   3   4  22   51.59    5.70
   3  -4 -22   51.19    5.10
  -4   4  22   19.90    3.70
   4   4 -22   17.50    3.40
  -4  -4 -22   16.90    3.10
   4   4  22   19.00    4.00
   4   4  22   16.60    3.40
  -4  -4  22   11.40    2.90
   4  -4 -22   14.40    2.80
   4  -4 -22   15.20    2.90
   5   4 -22   12.60    2.90
  -5   4  22   15.80    3.40
   5  -4  22   15.70    3.10
  -5  -4 -22   17.20    3.30
  -5   4  22   16.70    3.20
   5  -4 -22   14.60    3.00
   5   4  22   19.20    3.80
   5   4  22   18.90    4.10
  -5  -4  22   19.00    3.60
   5  -4 -22   18.10    3.10
  -6  -4 -22    5.60    2.00
  -6   4  22    3.20    2.10
   6  -4  22   -0.10    1.70
   6   4 -22    4.70    2.20
   6  -4 -22    3.30    2.20
   6   4  22    1.90    3.40
  -6  -4  22   -0.30    1.80
   6   4  22    5.40    2.50
  -7   4  22    1.70    2.50
  -7  -4 -22    2.90    3.40
   7   4 -22    1.50    2.10
   7  -4  22    3.00    2.10
  -7  -4  22    2.90    2.20
   7  -4 -22    3.30    2.90
   0   5 -22   -0.40    1.60
   0   5  22    1.90    1.50
   0   5  22   -0.50    1.70
   0  -5  22    1.00    1.70
   0  -5 -22    0.30    1.50
   1   5 -22   14.60    3.00
  -1   5  22   21.20    3.60
  -1  -5 -22   19.20    3.10
   1  -5  22   22.90    3.40
  -1   5  22   18.60    3.30
  -1  -5  22   19.00    3.40
   1   5  22   29.50    4.00
  -1   5 -22   16.80    3.20
   1   5  22   14.80    3.20
   1  -5 -22   15.00    2.80
  -2   5  22   29.20    4.30
  -2  -5 -22   20.20    3.30
   2   5 -22   26.50    4.00
  -2   5  22   28.00    4.10
   2  -5 -22   29.10    3.80
   2   5  22   26.60    4.20
  -2   5 -22   25.00    3.60
   2   5  22   27.00    4.30
  -2  -5  22   22.50    3.60
   2  -5 -22   21.30    3.40
  -3   5  22   25.20    3.90
  -3  -5 -22   17.60    3.20
   3   5 -22   19.20    3.60
  -3   5  22   15.40    3.40
   3   5  22   21.30    3.80
  -3  -5  22   18.70    3.70
  -3   5 -22   10.70    2.70
   3  -5 -22   18.30    3.10
   3  -5 -22   21.40    3.30
   3   5  22   22.20    4.00
   4   5 -22   24.40    3.90
  -4   5  22   33.60    4.70
   4  -5  22   39.20    4.50
  -4  -5 -22   34.70    4.50
   4   5  22   26.90    4.50
   4  -5 -22   36.30    4.40
  -4  -5  22   36.50    5.00
   4  -5 -22   26.40    4.00
   4   5  22   29.30    4.60
  -5   5  22   16.80    3.30
  -5  -5 -22   19.30    3.90
  -5   5  22   23.70    4.30
   5  -5  22   25.20    3.70
   5   5 -22   20.10    3.60
   5   5  22   27.90    4.40
  -5  -5  22   19.70    3.60
   5  -5 -22   27.00    3.90
   5  -5 -22   31.80    4.40
   5   5  22   25.50    4.60
   6  -5  22   39.80    4.90
  -6   5  22   45.50    5.50
  -6  -5 -22   35.40    5.10
   6   5 -22   37.30    4.80
   6  -5 -22   30.70    4.70
   6   5  22   32.40    5.30
   6   5  22   44.10    6.40
  -6  -5  22   46.50    5.80
   0   6  22   24.00    4.10
   0   6  22   35.10    4.50
   0   6 -22   33.80    4.40
   0  -6 -22   26.30    3.90
   0  -6  22   33.20    4.40
   1  -6  22   31.10    4.20
  -1   6  22   19.50    3.50
   1   6 -22   30.00    4.20
  -1   6  22   34.80    4.80
  -1  -6 -22   25.80    3.90
   1   6  22   30.80    4.30
  -1   6 -22   31.40    4.40
   1   6  22   30.90    4.70
   1  -6 -22   30.60    4.00
  -1  -6  22   29.20    4.20
  -2  -6 -22   38.40    4.60
   2   6 -22   34.10    4.60
  -2   6  22   38.20    4.80
  -2   6  22   32.40    4.40
   2   6  22   39.10    4.90
  -2  -6  22   32.90    4.50
   2   6  22   37.70    5.10
  -2   6 -22   29.90    4.20
   2  -6 -22   37.10    4.50
  -3  -6 -22   -0.10    2.10
  -3   6  22    1.90    2.20
   3   6 -22    0.00    2.00
  -3   6  22    0.80    1.90
  -3  -6  22    1.10    1.90
   3   6  22    2.20    2.00
   3  -6 -22    1.10    1.90
   3   6  22    1.00    2.30
  -3   6 -22   -0.10    1.70
   3  -6 -22    2.20    1.70
   4   6 -22   29.00    4.20
  -4  -6 -22   27.90    4.30
   4  -6  22   39.30    4.50
  -4   6  22   23.50    4.10
   4   6  22   20.20    4.20
   4  -6 -22   29.10    4.00
   4  -6 -22   33.10    4.30
   4   6  22   27.50    4.50
  -4  -6  22   28.70    4.40
  -5   6  22    9.20    3.10
  -5  -6 -22   15.70    3.50
   5  -6  22   12.90    3.00
   5   6 -22   12.40    3.10
   5  -6 -22   12.90    3.10
   5   6  22   16.60    4.10
  -5  -6  22    9.50    3.40
   5   6  22   12.80    3.40
   6  -6  22    3.00    1.90
  -6   6  22    1.40    2.70
   6   6 -22    2.30    2.10
  -6  -6 -22    2.60    3.30
   6   6  22    1.10    3.40
  -6  -6  22    2.50    2.40
   6  -6 -22   -0.70    3.00
   6   6  22    4.40    2.90
   0  -7  22    3.20    2.10
   0   7  22    0.60    1.80
   0  -7 -22   -0.40    1.70
   0   7 -22   -1.30    1.60
   0   7  22   -0.70    1.80
  -1   7  22    9.30    2.80
   1   7 -22    7.20    2.60
  -1  -7 -22    8.30    2.80
  -1   7  22    3.40    2.10
   1  -7 -22    6.10    2.30
   1   7  22    7.60    2.50
  -1   7 -22    7.20    2.60
   1   7  22    3.30    2.30
  -1  -7  22    6.50    2.40
  -2   7  22   73.89    6.20
  -2   7  22   85.29    6.90
  -2  -7 -22   74.99    6.30
   2   7 -22   79.89    6.70
   2   7  22   77.09    6.70
   2   7  22   74.49    6.40
  -2   7 -22   83.59    6.50
  -2  -7  22   82.09    6.70
   2  -7 -22   67.99    5.90
   3  -7  22    2.40    2.10
   3   7 -22   -0.10    1.80
  -3   7  22    2.20    2.20
  -3  -7 -22    0.90    2.10
  -3   7  22   -0.30    1.80
   3   7  22    0.70    2.20
  -3  -7  22    1.90    2.10
  -3   7 -22   -0.20    1.90
   3   7  22    1.50    2.20
   3  -7 -22   -0.70    1.50
   4  -7  22   60.19    6.10
   4   7 -22   55.49    6.30
  -4  -7 -22   60.09    6.60
   4   7  22   70.59    7.00
   4  -7 -22   78.59    6.00
  -4  -7  22   73.39    6.70
   4   7  22   61.49    7.20
  -4   7 -22   61.29    6.60
   4  -7 -22   57.09    6.00
   5  -7  22   14.10    3.20
   5   7 -22   10.70    2.90
  -5  -7 -22   10.40    3.70
  -5   7  22   11.20    3.30
   5  -7 -22   12.60    3.30
   5   7  22   14.50    4.10
  -5  -7  22    7.90    3.40
   5   7  22    9.10    4.20
   0   8 -22   23.30    4.10
   0   8  22   20.90    3.70
   0   8  22   14.90    3.40
   0  -8 -22   18.00    3.70
  -1  -8 -22    2.30    2.10
  -1   8  22    1.80    1.80
  -1   8  22    6.90    3.00
   1   8 -22    2.80    2.30
   1   8  22    6.20    2.60
   1   8  22    2.30    2.30
   1  -8 -22    6.80    2.70
  -1  -8  22    8.60    2.90
  -1   8 -22    2.20    2.20
  -2  -8 -22    8.50    2.60
  -2   8  22    8.70    2.80
   2   8 -22    8.60    2.70
  -2   8  22    3.00    2.40
   2   8  22    6.50    2.70
  -2   8 -22   10.10    3.10
   2   8  22    8.10    2.90
   2  -8 -22    8.00    2.50
  -2  -8  22    9.10    2.80
  -3  -8 -22    2.10    2.50
   3  -8  22    2.80    2.10
  -3   8  22    4.10    2.70
  -3   8  22    0.80    2.20
   3   8 -22    1.30    1.50
   3  -8 -22    0.70    1.50
   3   8  22    2.00    2.60
   3   8  22    7.70    2.50
  -3  -8  22    2.10    2.30
  -3   8 -22    2.90    2.70
  -4  -8 -22   10.90    3.70
   4   8 -22   14.20    3.30
   4  -8  22   15.30    3.20
  -4  -8  22   13.30    3.80
  -4   8 -22   12.30    3.30
   4   8  22    9.30    3.80
   4  -8 -22   10.80    3.50
   4  -8 -22   12.10    3.00
   4   8  22   15.50    4.20
   0   9 -22    1.50    2.30
   0   9  22   -4.00    1.60
   0   9  22    0.70    1.40
   0  -9 -22   -0.70    2.20
   1   9 -22    0.70    2.40
  -1  -9 -22    3.00    2.60
  -1   9  22    3.40    2.30
  -1   9  22    8.00    2.10
   1  -9 -22    3.50    2.70
   1   9  22    2.80    2.30
  -1   9 -22    1.60    2.50
  -1  -9  22    2.00    2.60
   1   9  22    6.00    2.00
  -2   9  22    2.20    1.60
   2  -9  22    1.30    2.80
  -2  -9 -22    0.40    2.60
   2   9 -22   -1.40    1.60
  -2   9  22   -1.60    2.20
  -2  -9  22   -0.90    2.10
   2   9  22    1.00    2.10
   2  -9 -22    1.90    2.70
   2   9  22    2.20    1.90
  -2   9 -22    3.10    2.60
   3  -9  22   24.70    4.00
  -3  -9 -22   26.20    4.60
   3   9 -22   24.90    4.50
   3  -9 -22   23.50    4.40
  -3  -9  22   27.80    5.00
  -3   9 -22   29.80    4.80
   3   9  22   20.30    4.30
   3   9  22   25.00    4.60
   0   0 -23   -0.70    1.00
   0   0  23    0.50    1.90
   0   0 -23    0.10    1.30
  -1   0 -23   -0.90    1.00
  -1   0  23   -0.80    1.40
   1   0  23   -0.40    1.60
   1   0 -23    1.10    1.30
   1   0 -23   -0.30    1.10
  -2   0  23    4.30    2.00
   2   0  23   11.70    2.80
  -2   0 -23    8.30    2.10
   2   0 -23    7.70    2.00
   3   0  23   -0.70    1.60
   3   0 -23   -0.20    1.40
  -3   0  23    1.80    1.60
  -3   0 -23    2.00    1.50
  -4   0 -23   30.00    3.90
   4   0 -23   23.40    3.60
  -4   0  23   25.10    4.00
   4   0  23   27.10    4.10
   5   0 -23   -1.60    1.70
  -5   0 -23   -0.40    1.70
  -5   0  23    1.50    2.00
  -6   0 -23   20.80    3.50
   6   0 -23   15.50    3.40
  -6   0  23   23.70    4.20
  -7   0  23   -4.40    1.70
  -7   0 -23    0.70    2.00
   7   0 -23    0.90    1.40
   0   1 -23    8.90    2.20
   0   1  23   11.50    3.00
   0  -1 -23    8.00    2.00
   0   1  23   16.30    3.30
   0  -1  23   12.60    2.70
   0  -1 -23    6.90    2.00
  -1   1  23   26.20    4.10
  -1   1  23   31.60    4.50
  -1  -1 -23   28.50    3.60
   1  -1  23   29.80    4.20
   1   1 -23   36.80    4.20
   1   1  23   29.80    4.40
   1   1  23   27.00    3.90
  -1   1 -23   35.20    3.80
   1  -1 -23   26.70    3.40
   1  -1 -23   30.40    3.60
  -1  -1  23   32.40    4.30
  -1   1 -23   31.20    3.70
  -2   1  23    5.90    2.30
   2  -1  23    3.80    2.20
  -2   1  23    3.70    2.30
   2   1 -23    4.30    1.80
  -2  -1 -23    7.00    2.10
   2   1  23    5.70    2.30
  -2  -1  23    3.20    2.20
   2   1  23    5.70    3.00
   2  -1 -23    3.10    1.80
   2  -1 -23    7.20    1.80
  -2   1 -23    6.80    1.90
   3  -1  23   46.40    5.30
  -3  -1 -23   42.10    4.70
  -3   1  23   41.70    5.30
   3   1 -23   44.70    4.80
  -3   1 -23   40.90    4.50
   3  -1 -23   43.10    4.50
   3   1  23   59.39    5.40
   3  -1 -23   48.60    5.10
  -3  -1  23   56.09    5.90
  -4  -1 -23   24.70    3.70
   4   1 -23   25.60    3.80
  -4   1  23   21.00    3.90
   4  -1  23   23.50    4.00
   4  -1 -23   28.90    4.20
  -4   1 -23   19.80    3.30
   4   1  23   27.80    4.20
  -4  -1  23   26.70    4.20
  -5  -1 -23    2.10    1.90
  -5   1  23    7.20    2.30
   5   1 -23    1.30    1.90
   5  -1 -23    2.40    2.00
  -5   1 -23    3.30    2.10
  -5  -1  23    1.20    2.00
   5   1  23    4.90    2.70
   6   1 -23    2.20    2.30
  -6   1  23   -0.60    1.90
  -6  -1 -23    7.10    2.40
   6  -1 -23    3.00    2.00
  -6   1 -23    3.10    2.00
  -6  -1  23    1.70    2.10
  -7  -1 -23   17.40    3.50
   7   1 -23   12.50    3.10
  -7   1  23   10.60    3.50
  -7   1 -23   11.60    3.10
  -7  -1  23   17.40    3.60
   7  -1 -23   12.50    3.70
   0   2  23   -2.00    1.70
   0   2  23    0.50    1.70
   0  -2 -23    0.00    1.20
   0  -2  23   -1.10    1.50
   0   2 -23    1.10    1.40
  -1   2  23    1.20    1.90
   1  -2  23    3.80    2.10
   1   2 -23    1.90    1.50
  -1  -2 -23    3.60    1.60
  -1   2  23    5.10    2.40
   1  -2 -23    4.20    1.70
   1  -2 -23    1.60    1.50
   1   2  23    0.60    1.80
  -1   2 -23    3.20    1.60
   1   2  23    4.80    2.40
  -1  -2  23    1.80    1.80
  -2   2  23    5.20    1.90
  -2  -2 -23    0.70    1.40
   2  -2  23    4.40    2.20
  -2   2  23    4.70    2.50
   2   2 -23    5.70    2.10
   2  -2 -23    4.20    1.80
   2   2  23    7.30    2.70
  -2  -2  23    3.70    2.20
   2  -2 -23    1.70    1.50
   2   2  23   -0.10    2.00
  -3  -2 -23    3.10    1.80
  -3   2  23    6.00    2.50
   3   2 -23    4.80    2.10
  -3   2  23    1.20    1.70
   3  -2  23    0.20    1.70
   3   2  23    0.20    1.80
  -3  -2  23    4.80    2.10
  -3   2 -23    3.80    1.90
   3  -2 -23    5.50    1.90
   3  -2 -23    2.70    1.50
   3   2  23    4.70    2.80
  -4  -2 -23   38.30    4.70
   4   2 -23   43.40    5.00
  -4   2  23   38.40    5.00
   4   2  23   53.29    5.80
   4   2  23   47.50    9.00
  -4  -2  23   45.80    5.40
   4  -2 -23   41.50    4.40
   4  -2 -23   37.90    4.70
  -4   2 -23   50.99    5.10
   5   2 -23    4.20    2.00
  -5   2  23    7.00    2.50
  -5   2  23    6.00    2.50
  -5  -2 -23    4.70    2.00
  -5   2 -23   10.30    2.70
   5   2  23    6.80    2.70
   5  -2 -23    5.00    2.40
  -5  -2  23   11.10    2.80
  -6  -2 -23   44.00    5.40
   6   2 -23   36.70    4.90
  -6   2  23   39.90    5.20
   6  -2 -23   46.90    5.60
  -6   2 -23   38.10    4.90
  -6  -2  23   32.80    4.80
  -7  -2 -23    2.10    2.20
   7   2 -23    5.80    2.50
  -7  -2  23    2.20    2.00
   7  -2 -23    1.10    2.70
  -7   2 -23    0.20    2.00
   0  -3 -23   10.90    2.40
   0   3  23   20.80    3.70
   0  -3  23   14.00    3.00
   0   3 -23   14.10    2.70
   0   3  23   17.80    3.30
   1  -3  23   26.90    3.90
   1   3 -23   22.80    3.50
  -1   3  23   23.50    3.70
  -1  -3 -23   27.00    3.70
  -1   3  23   26.80    4.30
  -1   3 -23   29.70    3.90
  -1  -3  23   20.00    3.70
   1   3  23   26.00    4.20
   1   3  23   31.60    4.50
   1  -3 -23   29.10    3.80
  -2  -3 -23   12.90    2.80
   2   3 -23   16.10    2.90
   2  -3  23   19.30    3.30
  -2   3  23   11.30    3.00
  -2   3  23   17.40    3.60
  -2  -3  23   12.10    3.10
   2  -3 -23   14.10    2.60
   2  -3 -23   13.00    2.60
  -2   3 -23   14.50    2.80
   2   3  23   17.40    3.50
   2   3  23   18.00    3.60
  -3   3  23   76.89    7.30
   3  -3  23   89.89   10.30
  -3  -3 -23   67.09    5.80
  -3   3  23   69.19    6.20
   3   3 -23   80.79    6.30
   3  -3 -23   82.79    5.80
  -3  -3  23   75.59    6.40
   3  -3 -23   72.29    5.80
   3   3  23   83.49    7.70
   3   3  23   78.39    6.60
  -4   3  23    8.40    2.80
   4   3 -23    8.80    2.50
  -4  -3 -23    4.00    2.10
   4   3  23    8.70    3.40
   4   3  23    7.80    2.80
  -4  -3  23    5.90    2.20
   4  -3 -23    3.40    2.00
   4  -3 -23    7.10    2.30
   5   3 -23   15.60    3.50
  -5  -3 -23   12.50    3.00
  -5   3  23   20.30    3.90
  -5   3  23   16.70    3.30
  -5  -3  23   18.70    3.60
   5  -3 -23   17.50    3.10
   5  -3 -23   10.20    3.00
   5   3  23   14.20    3.60
   5   3  23   11.20    4.90
   6   3 -23   10.20    2.50
  -6  -3 -23    9.60    2.50
  -6   3  23    9.00    3.10
  -6   3  23   10.90    2.90
  -6   3 -23   10.20    2.90
  -6  -3  23    5.90    2.70
   6  -3 -23    5.00    2.40
   6   3  23    6.90    3.30
   0  -4 -23    0.40    1.20
   0   4  23    3.50    2.10
   0   4  23   -2.60    1.30
   0   4 -23    1.10    1.70
   0  -4  23   -0.70    1.50
  -1   4  23    3.70    2.00
  -1  -4 -23    2.60    1.70
   1  -4  23    3.50    2.00
  -1   4  23    1.00    1.80
   1   4 -23    0.10    1.50
   1   4  23    3.40    2.40
   1  -4 -23    2.30    1.70
  -1  -4  23    2.90    1.90
   1   4  23    1.20    2.00
  -1   4 -23    1.90    1.90
  -2  -4 -23    0.30    1.50
   2   4 -23    0.40    1.50
   2  -4  23   -0.40    1.80
  -2   4  23   -0.50    2.10
  -2   4  23    1.50    1.80
   2  -4 -23   -1.20    1.30
   2   4  23   -1.60    2.00
  -2   4 -23    1.30    1.70
   2   4  23   -3.30    1.30
   2  -4 -23    0.70    1.50
  -2  -4  23   -1.90    1.30
  -3  -4 -23    0.90    1.80
  -3   4  23    2.30    2.30
   3   4 -23    1.80    1.60
  -3   4  23   -0.80    1.60
   3  -4 -23   -1.10    1.50
   3  -4 -23    1.10    1.50
  -3  -4  23    0.30    1.70
   3   4  23   -1.50    2.10
   3   4  23   -0.60    1.80
  -4  -4 -23    6.40    2.10
   4   4 -23    4.80    2.40
  -4   4  23    9.00    2.70
   4   4  23    8.10    2.90
  -4  -4  23    5.60    2.50
   4  -4 -23    8.60    2.40
   4  -4 -23    7.70    2.30
   4   4  23    5.50    2.90
   5   4 -23   27.10    4.00
  -5   4  23   22.60    3.80
  -5  -4 -23   25.90    4.00
  -5   4  23   23.60    4.20
   5  -4 -23   18.80    3.30
   5   4  23   26.60    4.80
   5  -4 -23   22.30    3.80
   5   4  23   22.50    4.30
  -5  -4  23   19.90    3.80
   6  -4  23   10.10    3.10
  -6  -4 -23   12.70    3.00
  -6   4  23   11.00    3.10
   6   4 -23   10.50    2.70
   6  -4 -23   14.60    3.40
   6   4  23   10.10    3.20
  -6  -4  23    9.20    2.90
   0  -5 -23   35.70    4.40
   0   5  23   27.00    4.10
   0   5  23   27.90    4.30
   0  -5  23   29.20    4.00
   0   5 -23   38.00    4.80
  -1  -5 -23   51.39    5.50
  -1   5  23   43.10    5.30
  -1   5  23   58.49    5.80
   1  -5  23   54.79    4.90
   1   5 -23   56.99    5.90
  -1  -5  23   41.30    5.00
   1   5  23   54.29    5.80
   1  -5 -23   46.50    5.10
  -1   5 -23   61.89    5.40
   1   5  23   45.00    5.40
  -2   5  23   24.20    3.80
   2   5 -23   24.50    3.80
  -2  -5 -23   28.90    4.20
  -2   5  23   31.50    4.60
   2   5  23   35.20    4.70
   2   5  23   22.20    3.90
  -2  -5  23   29.60    4.30
  -2   5 -23   25.50    3.90
   2  -5 -23   33.30    4.20
  -3  -5 -23   24.00    3.90
   3   5 -23   19.00    3.60
  -3   5  23   22.90    4.10
  -3   5  23   20.50    3.80
   3  -5 -23   24.20    3.50
   3  -5 -23   26.30    3.70
   3   5  23   15.30    3.70
   3   5  23   22.40    4.10
  -3   5 -23   18.60    3.60
  -3  -5  23   22.70    3.90
   4   5 -23   15.40    3.50
  -4  -5 -23   22.70    3.70
  -4   5  23   18.40    3.70
   4  -5 -23   18.10    3.40
   4   5  23   19.70    4.00
   4   5  23   26.20    4.50
  -4  -5  23   19.30    3.90
   4  -5 -23   11.50    3.00
  -5   5  23    4.50    2.60
  -5   5  23    5.50    2.60
  -5  -5 -23    6.80    2.50
   5   5 -23    2.10    1.60
  -5  -5  23    4.20    2.10
   5  -5 -23    1.80    2.10
   5   5  23    9.90    3.30
   5  -5 -23    4.80    2.00
   5   5  23    1.60    2.90
  -6   5  23   10.00    3.30
   6   5 -23   13.90    3.30
  -6  -5 -23    9.30    3.80
   6  -5  23   14.70    3.20
   6   5  23   10.00    4.70
   6  -5 -23   14.60    3.60
   6   5  23    7.70    3.40
  -6  -5  23    6.50    3.00
   0  -6 -23    1.00    1.40
   0   6  23   -2.10    1.80
   0   6  23    1.00    1.70
   0   6 -23    2.40    2.10
   0  -6  23    4.20    2.20
   1  -6  23    0.30    2.20
  -1   6  23    3.60    2.20
   1   6 -23    0.40    1.70
  -1  -6 -23    1.60    1.70
  -1   6  23   -0.20    1.60
   1  -6 -23    1.70    1.70
   1   6  23   -0.80    1.50
   1   6  23   -0.10    1.90
  -1   6 -23    1.60    1.90
  -1  -6  23   -1.80    1.70
  -2  -6 -23    0.90    1.70
   2   6 -23    0.80    1.70
  -2   6  23    0.40    1.70
  -2   6  23   -1.60    1.80
  -2  -6  23   -1.50    1.80
   2   6  23    2.20    2.40
   2   6  23   -1.40    1.80
  -2   6 -23    3.40    2.10
   2  -6 -23    1.50    1.60
  -3  -6 -23   20.80    3.50
  -3   6  23   18.60    3.70
   3   6 -23   15.90    3.40
  -3   6  23   18.80    3.80
   3  -6 -23   12.60    2.90
   3  -6 -23   14.90    3.30
   3   6  23   18.10    3.90
  -3  -6  23   15.00    3.50
  -3   6 -23   10.90    3.10
   3   6  23   20.20    3.80
  -4  -6 -23    3.80    2.50
   4   6 -23    0.60    1.60
  -4   6  23    1.60    2.40
   4   6  23    2.90    2.70
   4  -6 -23    4.20    2.00
   4  -6 -23    1.50    1.50
   4   6  23    4.10    2.60
  -4  -6  23    1.60    2.40
   5   6 -23    8.40    2.70
   5  -6  23    1.30    2.20
  -5   6  23    8.90    3.10
  -5  -6 -23    3.90    3.10
   5  -6 -23    6.10    2.80
  -5  -6  23    8.50    3.60
   5   6  23    5.00    3.60
   5   6  23    8.20    3.10
   0   7 -23  114.19    8.40
   0  -7  23  122.19    8.00
   0   7  23  109.99    8.30
   0  -7 -23  121.49    8.20
   0   7  23   95.19    7.40
  -1   7  23    8.50    2.90
  -1  -7 -23   13.80    3.20
   1   7 -23   14.90    3.40
  -1   7  23   12.50    3.10
  -1  -7  23   11.80    3.20
   1   7  23   10.20    3.00
   1  -7 -23    9.50    2.60
  -1   7 -23   10.30    2.80
   1   7  23   10.90    3.20
   2   7 -23   60.29    6.60
  -2  -7 -23   53.79    6.00
  -2   7  23   51.09    6.00
  -2   7  23   58.89    6.00
   2  -7 -23   63.09    6.30
  -2  -7  23   53.89    6.10
   2   7  23   49.90    5.80
   2   7  23   56.99    6.50
  -2   7 -23   60.59    6.40
  -3  -7 -23    5.80    2.70
  -3   7  23    4.90    2.70
  -3   7  23    6.50    3.00
   3   7 -23    7.00    2.70
   3   7  23    6.30    3.00
  -3  -7  23    8.90    3.00
  -3   7 -23    7.20    2.80
   3   7  23    3.60    3.00
   3  -7 -23    2.80    2.00
   4   7 -23   34.90    4.80
  -4  -7 -23   36.90    5.30
   4  -7  23   38.30    7.70
   4   7  23   27.70    5.10
   4   7  23   30.30    4.90
   4  -7 -23   34.00    4.70
   4  -7 -23   30.90    4.30
  -4  -7  23   18.90    4.20
  -4   7 -23   26.40    5.10
   0   8  23   -0.50    2.30
   0   8  23   -0.50    1.90
   0   8 -23   -1.20    1.90
   0  -8 -23   -0.30    2.00
  -1  -8 -23   -1.40    2.20
  -1   8  23   -1.60    2.20
  -1   8  23   -0.60    1.70
   1   8 -23   -1.30    2.30
   1   8  23   -0.30    2.30
  -1   8 -23    2.60    2.00
   1   8  23    1.90    2.00
   1  -8 -23    1.40    2.30
  -1  -8  23    4.10    2.40
  -2   8  23    8.10    3.00
   2   8 -23    9.20    3.10
  -2   8  23    5.90    3.00
  -2  -8 -23    9.90    3.20
  -2  -8  23   11.40    3.30
   2   8  23   12.10    3.50
   2  -8 -23   10.20    2.70
  -2   8 -23    3.30    2.70
   2   8  23    9.50    2.80
  -3   8  23   -3.20    2.40
  -3  -8 -23   -0.60    2.60
  -3   8  23    3.40    2.70
   3   8 -23    3.00    2.20
  -3   8 -23    1.30    2.20
   3  -8 -23   -0.30    1.60
  -3  -8  23    3.10    2.90
   3   8  23    4.80    3.00
   3   8  23   -2.40    3.00
   0   9  23   13.60    3.10
   0   9 -23   17.60    4.00
   0   9  23   17.30    3.80
   0  -9 -23   16.30    3.90
  -1  -9 -23    3.90    3.10
   1   9 -23    0.30    3.00
  -1   9  23    6.30    2.70
  -1   9  23    4.10    2.20
   1   9  23    1.80    2.10
   1   9  23    1.50    2.60
  -1   9 -23    1.80    2.60
  -1  -9  23    4.50    3.30
   1  -9 -23    2.10    2.90
   0   0 -24   -0.40    1.30
   0   0  24    4.60    2.30
   0   0 -24    6.70    2.00
  -1   0  24    0.00    1.80
   1   0 -24   -1.50    1.40
   1   0  24    1.60    2.00
  -1   0 -24   -0.20    1.30
   1   0 -24    2.50    1.70
   2   0 -24   55.79    4.90
   2   0  24   56.89    6.00
  -2   0 -24   64.49    5.10
  -2   0  24   52.89    5.70
  -3   0 -24   -0.80    1.50
   3   0 -24   -2.40    1.10
  -3   0  24   -3.30    1.20
   3   0  24    2.00    2.00
   4   0 -24   34.00    4.60
   4   0  24   31.70    4.60
  -4   0 -24   39.90    4.70
  -4   0  24   38.70    5.10
   5   0 -24    2.40    2.10
  -5   0  24   -1.70    1.60
  -5   0 -24   -0.70    1.70
   6   0 -24   27.90    4.80
  -6   0 -24   30.90    4.40
  -6   0  24   15.80    3.50
   0   1 -24   -2.00    1.20
   0   1  24    1.70    2.30
   0   1  24   -3.40    1.70
   0  -1  24    0.70    1.80
   0  -1 -24   -1.00    1.00
  -1   1  24    8.60    2.90
   1  -1  24    3.70    2.00
  -1  -1 -24    1.70    1.50
   1   1 -24    1.30    1.50
  -1   1  24    3.10    2.00
   1   1  24    5.90    2.40
  -1  -1  24    3.00    2.20
   1  -1 -24    0.10    1.30
   1  -1 -24    1.80    1.50
   1   1  24   -0.50    2.30
  -2   1  24    6.50    3.10
  -2  -1 -24    6.40    2.20
   2  -1  24    6.60    2.50
   2   1 -24    7.80    2.30
  -2   1  24    9.90    2.80
   2   1  24    9.30    3.00
   2  -1 -24   11.10    2.50
  -2  -1  24    8.90    2.80
   2  -1 -24    6.70    2.10
  -2   1 -24    5.80    2.00
  -3   1  24   14.90    3.40
   3   1 -24   16.10    3.10
  -3  -1 -24   17.20    3.10
   3  -1  24   11.20    3.10
  -3   1 -24   13.20    2.80
   3  -1 -24   19.00    3.30
   3   1  24   18.30    3.70
  -3  -1  24   11.80    3.00
   3  -1 -24   13.10    3.40
   4  -1  24    6.80    3.30
  -4   1  24    4.30    2.40
  -4  -1 -24    3.50    2.10
   4   1 -24    2.80    1.80
   4   1  24    5.90    2.50
  -4  -1  24    4.80    2.20
   4  -1 -24    0.70    1.70
  -4   1 -24    4.00    1.80
   5   1 -24   33.40    4.60
  -5  -1 -24   39.20    4.80
  -5   1  24   30.20    4.70
  -5   1 -24   35.20    4.70
  -5  -1  24   40.80    5.40
   5   1  24   39.10    5.40
   5  -1 -24   26.50    4.30
  -6  -1 -24   42.30    5.20
   6   1 -24   34.80    5.10
  -6   1  24   42.80    5.40
   6  -1 -24   36.90    5.10
  -6   1 -24   43.00    5.30
  -6  -1  24   32.90    5.00
   0   2  24   55.49    6.00
   0   2  24   48.60    5.50
   0  -2 -24   50.09    4.90
   0   2 -24   49.10    5.00
   0  -2  24   52.59    5.80
   1   2 -24   22.50    3.50
  -1   2  24   26.70    4.40
  -1   2  24   11.80    3.20
   1  -2  24   21.10    3.70
  -1  -2 -24   24.80    3.60
   1   2  24   19.10    3.70
   1  -2 -24   21.60    3.30
   1  -2 -24   24.00    3.40
  -1  -2  24   17.60    3.40
   1   2  24   17.40    3.40
  -1   2 -24   20.20    3.30
   2   2 -24   43.70    4.90
   2  -2  24   32.70    4.50
  -2   2  24   31.00    4.50
  -2  -2 -24   34.40    4.30
  -2   2  24   28.10    4.40
   2  -2 -24   35.00    4.20
   2   2  24   34.30    4.90
   2   2  24   40.60    5.30
  -2  -2  24   43.90    5.20
   2  -2 -24   37.20    4.30
  -3   2  24    2.00    2.40
  -3  -2 -24   -1.40    1.50
   3  -2  24    5.70    2.40
  -3   2  24    7.00    2.60
   3   2 -24    5.00    2.10
   3   2  24    2.60    3.10
   3  -2 -24   -0.10    1.50
   3  -2 -24    6.80    2.20
   3   2  24    0.40    2.10
  -3  -2  24    8.20    2.70
  -4  -2 -24   26.30    4.00
  -4   2  24   33.60    4.80
   4   2 -24   22.70    3.70
  -4  -2  24   31.80    4.60
  -4   2 -24   26.40    3.80
   4   2  24   27.00    4.40
   4  -2 -24   17.50    3.30
   4  -2 -24   37.10    4.30
  -5   2  24    5.80    2.50
  -5  -2 -24    8.00    2.30
   5   2 -24    8.80    2.70
   5   2  24    5.90    2.80
  -5  -2  24   13.10    3.30
   5  -2 -24    7.60    2.60
  -5   2 -24   12.00    2.90
   6   2 -24    3.00    2.70
  -6   2  24    0.90    2.00
  -6  -2 -24   -1.20    1.80
  -6  -2  24    1.40    2.30
   6  -2 -24    3.50    2.50
  -6   2 -24    4.60    2.40
   0  -3 -24   -1.40    1.30
   0  -3  24   -0.80    1.70
   0   3  24   -1.30    1.70
   0   3  24   -0.80    1.60
   0   3 -24   -0.20    1.50
  -1   3  24    3.00    2.00
   1  -3  24    0.00    1.70
   1   3 -24    2.00    1.70
  -1  -3 -24    2.30    1.60
  -1   3  24    2.90    2.50
   1   3  24   -0.80    1.90
   1   3  24    2.10    2.20
  -1  -3  24    3.80    2.40
  -1   3 -24    3.80    1.80
   1  -3 -24    3.50    1.70
  -2   3  24   14.60    3.30
   2   3 -24   12.40    2.90
  -2   3  24   17.10    3.90
  -2  -3 -24   13.40    2.70
   2  -3  24   14.00    3.20
   2  -3 -24   14.70    2.70
   2   3  24   13.70    3.40
  -2  -3  24   13.40    3.30
   2   3  24   23.10    4.20
   2  -3 -24    8.50    2.40
  -3   3  24   11.50    3.00
  -3  -3 -24   13.90    3.00
  -3   3  24    9.10    3.10
   3   3 -24   14.60    3.10
  -3  -3  24    9.50    2.70
   3  -3 -24    8.10    2.60
   3   3  24   15.70    3.80
   3   3  24   19.90    3.70
   3  -3 -24    8.10    2.30
   4   3 -24   17.80    3.30
  -4  -3 -24   18.50    3.50
  -4   3  24   27.90    4.30
   4  -3 -24   21.90    3.40
  -4  -3  24   15.50    3.50
   4   3  24   27.10    4.40
   4  -3 -24   15.40    3.20
   4   3  24   26.50    4.90
   5   3 -24   10.40    2.90
  -5  -3 -24   15.20    3.20
  -5   3  24   21.20    4.20
  -5   3  24   19.00    3.50
  -5  -3  24   20.50    4.00
   5   3  24   16.40    3.90
   5  -3 -24   16.30    3.30
  -6   3  24   23.90    4.10
  -6  -3 -24    8.90    3.00
  -6   3  24   13.90    3.70
   6   3 -24   13.20    3.10
  -6  -3  24   19.70    4.00
   6   3  24   16.10    4.30
   6  -3 -24   14.60    3.60
   0   4  24   48.10    5.50
   0  -4 -24   29.00    4.00
   0   4 -24   41.90    4.80
   0   4  24   44.20    5.40
   0  -4  24   38.80    4.80
  -1   4  24   42.70    5.30
  -1  -4 -24   57.49    5.60
   1   4 -24   51.89    5.50
   1  -4  24   49.30    5.50
  -1   4  24   47.80    5.50
   1   4  24   49.80    5.80
   1   4  24   54.59    5.80
   1  -4 -24   50.69    5.30
  -1  -4  24   41.40    5.10
  -1   4 -24   52.29    5.40
   2  -4  24   21.60    3.90
   2   4 -24   16.90    3.40
  -2  -4 -24   16.90    3.30
  -2   4  24   17.50    3.90
  -2   4  24   22.40    4.00
   2  -4 -24   20.10    5.00
  -2   4 -24   15.40    3.20
   2   4  24   19.50    3.90
  -2  -4  24   20.50    3.90
   2  -4 -24   17.60    3.20
   2   4  24   16.00    3.60
  -3   4  24   15.00    3.50
  -3  -4 -24   17.20    3.40
  -3   4  24   23.70    4.30
   3   4 -24   20.00    3.60
   3   4  24   26.10    4.50
   3  -4 -24   21.80    3.40
   3  -4 -24   22.10    3.50
   3   4  24   23.70    4.30
  -3  -4  24   19.20    3.80
  -4   4  24    2.10    2.10
  -4  -4 -24    0.20    1.70
   4   4 -24    4.90    2.40
   4  -4 -24    4.80    2.10
   4   4  24    5.90    3.30
   4   4  24    2.00    2.10
   4  -4 -24    4.90    2.10
  -4  -4  24    4.50    2.70
  -5  -4 -24    7.60    2.40
  -5   4  24    4.60    2.60
   5   4 -24    9.80    3.00
  -5   4  24   10.30    3.00
   5   4  24    7.00    3.30
   5   4  24   10.10    3.90
   5  -4 -24    5.10    2.10
  -5  -4  24    7.00    2.40
   5  -4 -24    4.70    2.30
   0   5 -24   -1.30    1.70
   0   5  24   -2.10    1.60
   0  -5  24    0.80    1.80
   0  -5 -24   -1.90    1.50
   0   5  24   -1.90    1.70
  -1   5  24   14.10    3.30
  -1   5  24    8.80    2.70
   1  -5  24   10.00    2.70
   1   5 -24    8.70    2.50
  -1  -5 -24   11.40    2.70
  -1  -5  24   12.40    3.00
   1   5  24    8.20    2.90
  -1   5 -24   10.70    2.60
   1   5  24   11.50    2.80
   1  -5 -24    4.20    2.00
   2   5 -24    3.90    2.30
  -2   5  24    0.70    2.20
  -2   5  24   -0.60    2.20
  -2  -5 -24    5.60    2.20
   2   5  24    1.40    2.30
  -2  -5  24    6.90    2.60
   2   5  24    4.70    2.60
   2  -5 -24    4.40    2.00
  -2   5 -24    3.90    2.10
  -3   5  24    1.40    2.10
  -3   5  24   -1.90    2.30
  -3  -5 -24    0.90    1.70
   3   5 -24    2.50    1.90
   3   5  24    2.80    2.40
  -3  -5  24    0.70    2.10
   3  -5 -24   -1.10    1.60
   3  -5 -24    0.50    1.40
   3   5  24   -0.60    2.30
   4   5 -24    8.60    2.80
  -4  -5 -24   12.20    2.90
  -4   5  24   15.40    3.60
   4   5  24    9.10    3.40
   4  -5 -24    7.90    2.50
   4   5  24   11.40    3.80
  -4  -5  24   12.80    3.80
   4  -5 -24   12.70    3.10
  -5  -5 -24    0.00    1.40
  -5   5  24    5.30    2.70
  -5   5  24    4.30    2.80
   5   5 -24    0.10    1.50
   5   5  24    1.20    3.30
  -5  -5  24    3.90    2.10
   5  -5 -24    2.60    2.40
   5   5  24   -0.70    2.70
   5  -5 -24    3.70    1.90
   0   6  24   49.90    6.20
   0  -6 -24   54.59    5.80
   0  -6  24   60.69    6.20
   0   6  24   56.39    6.00
   0   6 -24   52.49    6.00
  -1  -6 -24   21.30    3.60
  -1   6  24   20.80    3.90
   1  -6  24   23.00    6.20
   1   6 -24   13.90    3.20
  -1   6  24   20.80    4.00
  -1  -6  24   16.60    3.60
   1   6  24   21.10    4.10
  -1   6 -24   17.80    3.60
   1   6  24   14.40    3.40
   1  -6 -24   16.30    3.40
  -2   6  24    8.70    3.00
  -2   6  24   19.70    3.90
  -2  -6 -24   17.00    3.10
   2   6 -24   13.70    3.20
   2   6  24   15.50    3.70
  -2  -6  24   20.40    3.70
   2   6  24   13.40    3.80
  -2   6 -24   18.50    3.60
   2  -6 -24   12.80    2.90
  -3  -6 -24   14.70    3.00
  -3   6  24   18.70    4.00
  -3   6  24   11.80    3.40
   3   6 -24   20.10    4.00
  -3  -6  24   15.90    3.70
  -3   6 -24   14.50    3.60
   3   6  24   10.00    3.60
   3  -6 -24   17.90    3.40
   3   6  24   10.30    3.40
   4   6 -24   -1.00    1.60
  -4  -6 -24    2.90    3.00
  -4   6  24    3.40    2.40
  -4  -6  24   -0.70    2.50
   4  -6 -24   -1.70    1.80
   4   6  24    1.40    2.90
   4  -6 -24    0.80    1.60
   4   6  24    2.60    3.20
   0  -7 -24   -0.40    1.20
   0  -7  24    0.80    2.20
   0   7  24   -1.10    2.20
   0   7  24   -0.70    1.70
   0   7 -24    2.30    2.00
  -1  -7 -24    1.10    1.60
  -1   7  24   -0.40    1.90
   1   7 -24   -0.90    2.00
  -1   7  24    1.70    2.60
   1  -7 -24    0.20    1.40
   1   7  24   -1.80    1.70
  -1   7 -24    3.60    2.50
  -1  -7  24    0.50    2.10
   1   7  24    3.40    2.70
  -2   7  24   -2.40    1.70
  -2   7  24   -0.40    2.40
   2   7 -24    4.90    2.60
  -2  -7 -24    0.40    2.00
   2   7  24    1.60    1.90
   2   7  24    2.80    2.90
  -2  -7  24    3.40    2.30
  -2   7 -24   -3.50    1.90
   2  -7 -24    1.90    1.70
  -3   7  24   15.40    3.50
   3   7 -24   12.30    3.50
  -3  -7 -24    9.80    3.70
  -3   7  24   11.40    3.50
   3   7  24   12.00    3.90
   3  -7 -24   13.40    2.90
  -3   7 -24   11.90    3.20
  -3  -7  24    7.70    3.20
   3   7  24   10.20    4.00
   0   8  24    6.40    3.20
   0  -8 -24    4.30    2.90
   0   8 -24    0.00    2.40
   0   8  24    0.70    2.10
  -1   8  24   12.50    3.60
  -1   8  24   11.10    3.40
   1   8 -24    9.10    3.10
  -1  -8 -24   12.70    3.70
  -1   8 -24    6.40    3.00
  -1  -8  24   17.70    3.80
   1  -8 -24   10.20    2.90
   1   8  24   13.10    3.80
   1   8  24   12.50    3.20
  -2   8  24   15.70    3.70
  -2  -8 -24   21.80    4.60
   2   8 -24   22.00    4.60
  -2   8  24   17.20    4.20
   2  -8 -24   18.60    3.80
   2   8  24    8.50    3.30
   2   8  24   10.40    3.90
  -2  -8  24   16.00    3.90
  -2   8 -24   15.00    3.90
   0   0 -25    2.70    1.70
   0   0  25    0.70    1.70
  -1   0 -25   -0.60    1.50
   1   0 -25    4.20    1.80
  -1   0  25    0.80    2.20
   1   0  25    2.40    2.10
  -2   0 -25   41.60    4.80
  -2   0  25   41.30    5.40
   2   0  25   40.60    5.30
   2   0 -25   42.20    4.80
   3   0  25   -0.70    1.60
  -3   0 -25    2.60    1.60
   3   0 -25   -0.50    1.50
  -3   0  25   -0.20    1.50
   4   0  25   18.90    3.80
  -4   0 -25   19.00    3.50
   4   0 -25   21.90    3.80
  -4   0  25   10.80    3.10
  -5   0  25   -0.70    2.00
   5   0 -25   -0.40    1.90
  -5   0 -25    3.40    1.90
  -6   0  25    2.30    2.40
   6   0 -25    0.40    2.60
  -6   0 -25   -1.30    1.90
   0   1  25   47.30    5.70
   0   1 -25   56.69    4.70
   0  -1  25   46.60    5.60
   0  -1 -25   39.70    4.60
  -1  -1 -25   63.99    5.40
   1  -1  25   62.59    6.50
   1   1 -25   64.89    5.40
  -1   1  25   69.29    6.30
   1  -1 -25   63.49    5.30
   1   1  25   66.49    6.90
   1  -1 -25   73.29    5.50
  -2  -1 -25   32.60    4.10
   2  -1  25   31.90    4.60
   2   1 -25   25.00    3.70
  -2   1  25   31.90    4.60
  -2  -1  25   25.70    4.40
  -2   1 -25   37.80    5.30
   2   1  25   30.10    4.40
   2  -1 -25   23.20    3.60
   2  -1 -25   29.00    3.90
  -3   1  25   10.80    2.90
   3   1 -25    9.10    2.50
  -3  -1 -25   10.70    2.80
   3  -1  25   12.10    3.20
   3  -1 -25   11.20    2.80
  -3   1 -25   13.60    2.90
  -3  -1  25    5.60    2.70
   3   1  25   10.20    2.90
  -4   1  25    7.70    2.50
  -4  -1 -25    6.90    2.60
   4   1 -25    3.20    1.90
  -4  -1  25    7.60    2.30
   4  -1 -25    7.80    2.60
   4   1  25    7.90    3.00
  -4   1 -25    6.40    2.30
  -5   1  25   43.90    5.60
  -5  -1 -25   44.70    5.30
   5   1 -25   45.80    5.60
  -5   1 -25   51.69    5.60
   5  -1 -25   35.00    5.00
  -5  -1  25   37.90    5.40
   5   1  25   44.50    6.70
   0  -2 -25    0.70    1.60
   0   2 -25    1.60    1.60
   0   2  25   -0.40    1.80
   0   2  25    1.10    2.20
   0  -2  25    1.80    2.00
  -1  -2 -25   13.60    2.80
   1   2 -25   11.50    2.70
   1  -2  25   16.00    3.40
  -1   2  25   13.70    3.20
  -1   2  25    9.00    3.10
  -1  -2  25   12.40    3.30
   1  -2 -25    9.20    2.50
   1   2  25   11.70    3.00
   1   2  25   11.70    3.50
  -1   2 -25   15.20    4.20
   2   2 -25   15.60    3.10
  -2   2  25    8.80    3.30
   2  -2  25   12.70    3.20
  -2   2  25   16.90    3.50
  -2  -2 -25   11.30    2.70
   2  -2 -25   16.40    3.10
   2   2  25   11.10    3.10
   2  -2 -25   15.20    3.00
   2   2  25   17.90    4.20
  -2  -2  25   14.30    3.40
   3   2 -25    1.40    1.90
  -3   2  25    1.70    2.00
  -3  -2 -25    1.30    1.70
   3  -2  25    0.10    2.20
  -3  -2  25    2.00    2.30
   3   2  25    3.10    2.50
   3  -2 -25    2.10    1.80
   3  -2 -25    1.20    1.70
  -4   2  25   18.80    3.90
  -4  -2 -25   22.70    3.80
   4   2 -25   19.00    3.60
   4  -2 -25   18.80    3.50
   4  -2 -25   18.90    3.60
   4   2  25   22.90    4.20
  -4  -2  25   17.80    3.60
  -5   2  25    2.20    2.30
   5   2 -25   -1.00    1.70
  -5  -2 -25   -1.50    2.00
   5  -2 -25    3.60    2.30
   5   2  25    4.00    2.80
  -5  -2  25    5.20    2.40
  -5   2 -25    5.40    2.80
   0   3 -25   27.40    4.10
   0   3  25   23.70    4.30
   0  -3  25   25.50    4.10
   0  -3 -25   27.00    3.90
   0   3  25   20.90    4.00
  -1  -3 -25    5.40    2.10
   1  -3  25    5.50    2.60
  -1   3  25    6.30    2.50
  -1   3  25   13.30    3.50
   1   3 -25   10.90    2.80
   1  -3 -25    9.90    2.50
  -1   3 -25    6.20    2.30
   1   3  25    9.70    2.90
  -1  -3  25   10.20    2.90
   1   3  25   13.60    3.50
   2   3 -25    9.50    2.60
  -2   3  25   11.50    3.20
  -2   3  25   18.30    3.80
   2  -3  25   11.20    3.00
  -2  -3 -25   11.30    2.80
   2  -3 -25   10.80    2.70
  -2  -3  25   12.70    3.20
   2  -3 -25    9.80    2.60
   2   3  25   11.10    3.50
   2   3  25   12.30    3.40
  -3   3  25    7.10    2.70
  -3  -3 -25    6.50    2.50
   3   3 -25   10.30    2.80
  -3   3  25    6.10    3.10
   3  -3 -25    7.60    2.60
   3   3  25   10.60    3.20
   3  -3 -25    8.10    2.50
   3   3  25   10.10    3.40
  -3  -3  25    7.10    2.60
  -4  -3 -25   30.80    4.30
   4   3 -25   30.20    4.50
  -4   3  25   30.30    4.70
  -4  -3  25   29.80    4.50
   4  -3 -25   30.70    4.20
   4   3  25   33.10    5.10
   4  -3 -25   30.60    4.30
   4   3  25   32.80    5.80
   5   3 -25    8.00    2.80
  -5  -3 -25    6.00    2.70
  -5   3  25    9.40    2.90
  -5   3  25    7.30    2.70
   5  -3 -25    5.60    2.70
  -5  -3  25    6.70    2.70
   5   3  25    6.10    3.10
   0   4 -25    1.10    1.70
   0   4  25    0.70    1.90
   0  -4 -25   -0.10    1.50
   0   4  25   -1.90    1.80
   0  -4  25   -1.00    1.80
  -1  -4 -25    3.80    2.00
  -1   4  25    2.80    2.20
   1  -4  25    7.40    2.80
   1   4 -25    3.50    2.00
  -1   4  25    5.90    2.80
   1  -4 -25    4.50    2.10
   1   4  25    3.50    2.50
   1   4  25    6.10    2.90
  -1  -4  25    3.50    2.30
  -1   4 -25    2.20    1.90
  -2   4  25   -0.30    2.20
   2   4 -25    2.20    1.90
  -2   4  25   -1.10    1.90
  -2  -4 -25    1.20    1.90
   2  -4  25   -1.50    2.40
   2   4  25   -1.40    2.20
   2  -4 -25    0.60    1.60
   2   4  25   -0.90    2.10
  -2   4 -25    5.10    3.70
  -2  -4  25    0.00    2.20
   3   4 -25   24.20    4.00
  -3   4  25   21.20    4.30
  -3  -4 -25   16.10    3.30
  -3   4  25   26.90    4.40
  -3  -4  25   14.60    3.60
   3   4  25   23.40    4.50
   3   4  25   20.90    4.20
   3  -4 -25   16.40    3.10
   3  -4 -25   12.10    2.90
  -4   4  25    1.70    2.30
   4   4 -25    2.20    2.30
  -4  -4 -25    4.70    1.90
   4  -4 -25    0.60    1.80
   4   4  25   -3.40    2.60
   4  -4 -25    2.50    2.00
   4   4  25    2.00    2.70
  -4  -4  25   -0.20    2.20
  -5   4  25   -0.70    2.10
   5   4 -25    1.20    2.70
  -5  -4 -25    0.30    1.90
  -5   4  25    2.10    2.30
   5  -4 -25    3.30    1.90
   5   4  25    2.10    2.90
   5  -4 -25    0.60    2.00
  -5  -4  25    0.90    2.00
   5   4  25   -2.20    3.70
   0   5 -25    7.20    2.60
   0  -5 -25    6.40    2.30
   0  -5  25    3.00    2.20
   0   5  25    6.40    2.50
   0   5  25    3.70    2.70
  -1   5  25   11.40    3.00
  -1   5  25   13.00    3.60
   1  -5  25    4.60    2.60
   1   5 -25    9.40    2.70
  -1  -5 -25    8.80    2.50
   1   5  25   12.60    3.20
   1   5  25    8.20    3.10
  -1   5 -25    8.10    2.70
   1  -5 -25   11.00    2.80
  -1  -5  25    7.30    2.70
  -2   5  25   16.50    3.80
  -2   5  25   21.70    3.80
  -2  -5 -25   19.70    3.40
   2   5 -25   15.70    3.60
  -2  -5  25   22.30    4.10
   2  -5 -25   22.50    3.70
  -2   5 -25   18.20    3.60
   2   5  25   16.30    3.80
   2   5  25   20.70    4.20
  -3   5  25    4.40    2.80
  -3  -5 -25    5.50    2.20
  -3   5  25    3.60    2.50
   3   5 -25    9.70    2.90
   3   5  25    4.00    3.10
   3   5  25    3.50    2.80
   3  -5 -25    9.30    2.30
  -3  -5  25   10.50    3.30
  -4  -5 -25   10.70    3.00
  -4   5  25   11.60    3.30
   4   5 -25   14.90    3.70
   4   5  25   10.10    4.00
   4  -5 -25    8.30    2.60
   4   5  25   11.40    3.70
  -4  -5  25   20.80    4.60
   4  -5 -25    6.00    2.60
   0  -6  25    0.80    2.20
   0   6  25   -0.60    1.50
   0   6  25    0.50    2.50
   0   6 -25    2.10    2.20
   0  -6 -25   -3.00    1.40
   1   6 -25    4.30    2.80
  -1   6  25    0.30    2.50
  -1  -6 -25    0.70    1.70
  -1   6  25    0.90    2.00
   1   6  25    4.50    3.50
  -1  -6  25   -4.00    1.90
   1  -6 -25   -1.90    1.60
  -1   6 -25    3.30    2.40
   1   6  25    1.30    1.80
   2   6 -25    5.20    2.80
  -2   6  25    9.30    3.00
  -2   6  25    5.30    3.10
  -2  -6 -25   11.30    2.90
  -2   6 -25    6.40    2.80
   2  -6 -25    7.40    2.50
   2   6  25    8.90    3.30
  -2  -6  25    9.20    3.10
   2   6  25    9.20    3.50
  -3   6  25    8.20    3.00
  -3   6  25   11.40    3.80
   3   6 -25   12.20    3.40
  -3  -6 -25   11.70    3.00
   3   6  25   12.80    4.10
   3   6  25   11.70    3.80
   3  -6 -25   13.00    3.10
  -3  -6  25   14.90    4.00
   0   7  25   54.19    6.20
   0   7  25   45.50    6.00
   0  -7 -25   49.40    5.70
   0  -7  25   47.80    5.90
   0   7 -25   44.00    5.70
  -1   7  25    4.70    3.20
   1   7 -25    2.40    2.40
  -1   7  25    4.10    2.40
  -1  -7 -25    0.40    1.70
  -1  -7  25    0.10    2.50
   1  -7 -25    2.80    2.00
   1   7  25    1.10    3.10
  -1   7 -25    1.30    2.40
   1   7  25    4.60    2.40
   2   7 -25   15.70    4.00
  -2   7  25   19.00    4.00
  -2   7  25   19.80    4.40
  -2  -7 -25   17.00    3.40
   2   7  25   16.50    3.90
   2   7  25   16.90    4.40
  -2   7 -25   16.70    3.80
   2  -7 -25   14.50    3.50
  -2  -7  25   17.30    4.00
   0   0  26  141.29    9.70
   1   0 -26   -0.20    1.60
  -1   0 -26   -1.20    1.70
  -1   0  26    2.60    2.50
   1   0  26    0.30    2.00
   2   0 -26   24.70    3.80
  -2   0 -26   29.80    4.10
   2   0  26   28.90    4.60
  -2   0  26   27.10    4.60
  -3   0 -26   -0.60    1.70
   3   0 -26    0.60    1.80
  -3   0  26    0.20    2.00
   3   0  26    0.70    2.30
  -4   0 -26   27.90    4.30
   4   0  26   25.20    4.50
   4   0 -26   26.40    4.20
  -4   0  26   19.60    3.80
  -5   0  26    1.30    2.10
   5   0 -26    0.60    2.20
  -5   0 -26    3.90    2.20
   0   1  26    3.70    2.30
   0  -1 -26    2.70    1.90
   0   1 -26   -0.10    1.90
   0  -1  26    1.10    2.30
  -1   1  26    5.60    2.60
  -1  -1 -26    8.90    2.40
   1  -1  26    7.50    2.80
   1   1 -26    8.40    2.40
  -1  -1  26    6.10    2.80
   1   1  26    8.30    2.80
   1  -1 -26    7.30    4.40
   1  -1 -26    5.30    2.10
   2   1 -26    7.20    2.60
   2  -1  26    6.80    2.90
  -2   1  26    9.70    2.90
  -2  -1 -26    6.90    2.40
   2   1  26    7.40    3.00
  -2  -1  26    3.00    2.30
   2  -1 -26    4.00    2.10
   3   1 -26   31.90    4.50
   3  -1  26   30.00    4.70
  -3   1  26   27.70    4.50
  -3  -1 -26   34.60    4.70
  -3   1 -26   27.90    4.90
   3   1  26   35.10    5.00
  -3  -1  26   35.90    5.10
   3  -1 -26   28.80    4.10
  -4  -1 -26   36.50    4.80
  -4   1  26   28.50    4.70
   4   1 -26   23.60    4.10
  -4   1 -26   32.00    4.50
  -4  -1  26   32.00    4.70
   4  -1 -26   29.00    4.50
   4   1  26   27.40    4.60
   5   1 -26   22.40    4.40
  -5  -1 -26   31.40    4.50
  -5   1  26   32.10    5.00
  -5  -1  26   28.40    4.80
  -5   1 -26   29.50    4.40
   5  -1 -26   27.20    4.50
   0   2  26  112.99    8.80
   0   2 -26  105.89    7.30
   0   2  26  104.79    8.30
   0  -2 -26  100.59    7.20
   0  -2  26  111.09    8.20
  -1   2  26   22.90    4.10
  -1  -2 -26   22.00    3.60
  -1   2  26   25.10    4.70
   1  -2  26   28.50    4.50
   1   2 -26   27.60    4.00
  -1  -2  26   30.20    4.70
   1  -2 -26   26.00    3.80
   1   2  26   22.70    4.80
   1   2  26   19.90    3.80
  -2  -2 -26   49.90    5.50
   2   2 -26   60.69    6.00
  -2   2  26   56.39    6.40
   2  -2  26   44.10    5.60
  -2   2  26   35.60    5.60
   2  -2 -26   58.59    5.80
   2   2  26   55.19    6.20
  -2  -2  26   55.29    6.40
   2  -2 -26   53.99    5.50
   3   2 -26    4.30    2.30
  -3   2  26    6.50    2.70
  -3  -2 -26    3.40    2.30
   3  -2  26    6.80    3.00
   3  -2 -26    3.90    2.40
  -3  -2  26    9.30    3.00
   3  -2 -26    5.90    2.50
   3   2  26    3.20    2.30
  -4   2  26   14.50    3.50
  -4  -2 -26   21.50    3.70
   4   2 -26   18.50    3.80
  -4  -2  26   16.60    3.60
   4  -2 -26   25.90    4.10
   4   2  26   13.10    3.60
   5   2 -26    3.10    2.70
  -5  -2 -26    0.90    2.30
  -5   2  26    0.10    2.10
   5  -2 -26    5.80    3.50
  -5  -2  26    2.50    2.60
   5   2  26    0.80    3.20
   0   3  26   -0.20    2.10
   0   3 -26   -0.40    1.70
   0   3  26   -1.90    2.20
   0  -3 -26   -1.30    1.40
   0  -3  26    1.40    2.20
  -1   3  26    7.30    3.10
  -1  -3 -26    1.50    1.80
   1  -3  26    4.30    2.50
  -1   3  26    8.50    2.70
   1   3 -26    3.90    2.10
   1   3  26    4.10    2.40
  -1   3 -26    1.90    2.00
  -1  -3  26    9.60    3.00
   1  -3 -26    3.10    1.90
   1   3  26    2.80    2.70
  -2   3  26   21.40    3.80
  -2  -3 -26   15.10    3.10
   2  -3  26   14.50    3.40
   2   3 -26   15.90    3.30
  -2   3  26   18.30    4.10
   2   3  26   19.80    4.00
   2  -3 -26   18.60    3.40
  -2  -3  26   22.10    4.10
   2   3  26   22.80    4.60
  -3  -3 -26    5.40    2.30
   3   3 -26    4.90    3.10
  -3   3  26    6.00    2.60
   3   3  26    3.20    2.80
   3  -3 -26    2.90    2.20
   3   3  26   10.80    4.10
  -3  -3  26    2.20    2.70
   3  -3 -26    6.20    2.50
   4   3 -26   23.80    4.30
  -4   3  26   26.20    4.50
  -4  -3 -26   23.70    3.90
  -4  -3  26   30.00    4.60
   4   3  26   24.20    4.60
   4  -3 -26   21.40    3.70
   4  -3 -26   24.90    4.20
   0  -4 -26    2.70    1.80
   0   4  26    1.70    1.90
   0  -4  26   -0.30    1.80
   0   4 -26    1.00    1.80
   0   4  26   -1.00    2.40
  -1  -4 -26   45.90    5.30
   1  -4  26   53.59    6.10
   1   4 -26   50.39    5.70
  -1   4  26   56.39    6.60
  -1   4  26   62.09    6.90
   1   4  26   67.79    7.20
   1  -4 -26   57.99    5.80
   1   4  26   61.59    6.80
  -1  -4  26   66.59    6.80
  -1   4 -26   76.29    6.00
  -2  -4 -26    9.40    2.60
  -2   4  26    9.70    3.00
  -2   4  26    8.40    3.20
   2   4 -26    2.00    2.00
   2  -4 -26    7.50    2.40
   2   4  26    0.60    2.40
   2   4  26    3.50    3.20
  -2  -4  26   16.30    3.90
  -3   4  26    4.20    2.30
  -3   4  26   -0.20    2.90
  -3  -4 -26    9.30    2.70
   3   4 -26    8.00    3.00
   3  -4 -26    9.70    2.60
   3  -4 -26    8.30    2.70
   3   4  26    2.30    2.90
  -3  -4  26    6.20    3.20
   3   4  26    1.50    3.20
  -4   4  26    0.20    2.20
  -4  -4 -26    4.40    2.30
   4   4 -26    2.10    2.60
   4   4  26    5.10    3.90
   4  -4 -26   11.40    3.00
  -4  -4  26    8.80    4.00
   4   4  26   -1.10    2.70
   4  -4 -26    6.70    2.30
   0   5 -26    0.10    1.80
   0   5  26   -2.10    2.30
   0  -5  26   -4.00    1.70
   0  -5 -26   -1.00    1.60
   0   5  26    1.00    1.60
  -1   5  26    2.60    1.70
  -1   5  26    2.30    2.80
  -1  -5 -26   -0.20    1.90
   1   5 -26   -0.70    1.90
   1  -5  26    0.40    2.10
  -1  -5  26    2.50    2.50
   1   5  26    2.60    2.80
   1   5  26   -1.70    2.30
   1  -5 -26    0.80    1.80
  -1   5 -26   -2.00    1.80
  -2  -5 -26    1.00    1.60
   2   5 -26   -1.10    1.80
  -2   5  26    4.60    3.20
  -2   5  26    3.30    2.40
   2   5  26    1.30    3.00
  -2   5 -26    1.90    2.50
   2  -5 -26    3.50    2.00
   2   5  26    7.30    3.40
  -2  -5  26    4.90    3.00
   3   5 -26    5.80    2.80
  -3   5  26    3.60    3.30
  -3  -5 -26    0.90    2.10
  -3   5  26    4.50    2.60
   3  -5 -26    6.80    2.40
   3   5  26    2.00    3.20
   3   5  26    5.00    3.70
  -3  -5  26    6.80    3.50
   0   6  26    7.50    2.80
   0   6  26    3.80    3.00
   0  -6  26    4.60    2.80
   0   6 -26    4.20    2.70
   0  -6 -26    6.50    2.40
  -1  -6 -26    1.20    1.80
  -1   6  26    8.40    3.60
   1   6 -26    0.50    2.10
  -1   6  26    7.60    2.70
   1   6  26    1.70    2.20
  -1   6 -26    2.40    2.60
   1   6  26    1.90    3.10
   1  -6 -26    3.80    2.20
  -1  -6  26    3.80    2.70
  -2  -6 -26    5.90    2.50
  -2   6  26    3.70    3.30
  -2   6  26    7.80    2.80
   2   6 -26    8.50    3.20
  -2  -6  26    9.40    3.50
  -2   6 -26    8.50    3.10
   2  -6 -26    5.10    2.60
   2   6  26    5.20    3.70
   2   6  26    7.00    3.90
   0   0  27    3.90    2.80
   1   0 -27    0.60    2.10
  -1   0  27   -1.30    2.20
   1   0  27   -0.20    2.20
  -2   0 -27   11.20    3.10
   2   0 -27   10.80    2.70
   2   0  27   20.70    4.20
  -2   0  27   16.60    4.10
  -3   0  27   -0.20    1.70
   3   0 -27    0.20    2.00
   3   0  27   -2.00    2.30
  -3   0 -27    2.30    2.30
   4   0  27   28.20    5.20
   4   0 -27   33.40    4.90
  -4   0  27   34.80    5.20
  -4   0 -27   32.20    4.80
   0  -1  27   23.70    4.30
   0   1  27   22.70    4.10
   0  -1 -27   24.40    4.00
   1   1 -27    9.60    2.70
   1  -1  27    8.30    2.90
  -1   1  27    6.80    2.90
  -1  -1 -27    6.10    2.30
   1   1  27    5.40    3.00
  -1  -1  27    7.60    3.20
  -2   1  27   19.10    3.70
  -2  -1 -27   13.10    3.00
   2  -1  27   14.80    3.90
   2   1 -27   15.80    3.30
   2  -1 -27   16.90    3.30
   2   1  27   20.60    4.20
  -2  -1  27   15.50    4.00
   3   1 -27    1.30    1.90
  -3  -1 -27    0.00    1.80
  -3   1  27    0.60    1.90
   3  -1  27    0.70    2.40
  -3  -1  27    3.30    2.20
   3   1  27    3.30    2.90
   3  -1 -27    2.00    2.20
   4   1 -27   -2.50    1.90
  -4   1  27   -0.80    1.90
  -4  -1 -27   -1.10    1.70
  -4   1 -27    3.50    4.10
   4  -1 -27    0.30    2.10
   4   1  27   -5.20    2.20
  -4  -1  27   -1.70    1.50
   0  -2  27   -2.20    2.10
   0   2  27    1.40    2.50
   0   2 -27    0.90    2.10
   0  -2 -27    0.10    1.70
   1  -2  27   10.20    3.50
  -1   2  27    8.30    2.80
   1   2 -27   11.00    2.90
  -1  -2 -27    9.60    2.60
  -1   2  27    7.30    5.20
   1  -2 -27    8.40    2.50
  -1  -2  27    9.70    3.20
   1   2  27    6.00    2.90
   2   2 -27   -0.10    1.80
  -2  -2 -27    2.20    1.90
  -2   2  27    3.60    2.10
   2  -2  27    3.40    2.60
  -2  -2  27   -0.90    2.50
   2   2  27    4.80    2.90
   2  -2 -27    2.70    3.30
   2  -2 -27    3.50    2.20
   3  -2  27    7.90    4.20
  -3  -2 -27   11.60    2.90
  -3   2  27    3.70    2.50
   3   2 -27   10.20    3.10
   3  -2 -27   11.30    3.00
   3   2  27    6.20    3.20
  -3  -2  27    8.60    3.40
  -4   2  27    0.50    2.40
  -4  -2 -27    2.60    2.30
   4   2 -27   -2.10    2.00
   4   2  27    0.30    2.90
   4  -2 -27    0.50    2.30
  -4  -2  27   -2.20    2.10
   0   3  27    3.10    2.70
   0   3 -27    4.40    2.30
   0  -3 -27    5.40    2.20
   0  -3  27    8.00    3.10
   0   3  27    5.10    3.20
  -1   3  27   15.90    4.10
   1  -3  27   24.70    4.30
  -1  -3 -27   21.90    3.60
   1   3 -27   19.00    3.70
  -1   3  27   14.20    3.60
   1   3  27   21.10    4.50
   1  -3 -27   20.80    3.60
  -1  -3  27   15.90    3.80
   1   3  27   19.30    4.40
  -2  -3 -27    5.70    2.30
  -2   3  27    5.00    3.10
   2   3 -27    5.50    2.50
   2  -3  27    3.10    2.70
  -2   3  27    2.10    2.10
   2   3  27    0.80    3.40
   2   3  27   12.40    3.70
  -2  -3  27    3.90    2.80
   2  -3 -27    5.80    2.20
   3   3 -27   19.40    3.90
  -3   3  27   14.00    3.60
  -3  -3 -27   21.10    3.80
   3   3  27   17.10    4.40
   3  -3 -27   20.80    3.80
   3  -3 -27   22.50    3.70
  -3  -3  27   21.70    4.90
   0   4  27    0.00    1.60
   0  -4  27   -0.40    2.30
   0   4  27   -0.70    2.40
   0   4 -27   -2.80    1.50
   0  -4 -27    0.10    1.60
   1   4 -27    7.70    2.90
  -1  -4 -27    3.30    1.90
  -1   4  27    3.20    3.00
   1  -4  27    3.00    2.60
  -1   4  27    3.50    2.20
   1  -4 -27    4.70    2.30
   1   4  27    4.10    3.00
  -1  -4  27    4.70    2.70
  -1   4 -27    4.40    2.30
   1   4  27    6.70    3.50
  -2   4  27    6.20    2.70
   2   4 -27   -1.50    1.80
  -2   4  27    1.40    3.20
  -2  -4 -27    0.50    2.00
   2   4  27    8.10    3.60
  -2  -4  27    5.00    2.90
   2   4  27    5.40    3.50
   2  -4 -27    6.10    2.40
   3   4 -27    9.10    3.30
  -3  -4 -27    3.70    2.60
  -3   4  27    7.40    3.20
   3   4  27    0.70    2.80
   3   4  27    6.50    3.90
  -3  -4  27    8.30    4.00
   3  -4 -27    8.10    2.60
   0   5  27   34.80    5.80
   0  -5 -27   46.90    5.60
   0   5 -27   41.40    5.50
   0   5  27   45.30    6.00
   0  -5  27   40.10    5.60
   1   5 -27    4.50    2.50
  -1  -5 -27    1.20    1.90
   1  -5  27    2.50    2.90
  -1   5  27    2.30    2.30
  -1   5  27    5.70    3.60
   1  -5 -27    3.30    2.20
  -1   5 -27    6.30    2.70
  -1  -5  27    3.80    2.80
   1   5  27    9.30    3.70
   1   5  27    9.00    3.80
  -2  -5 -27   25.20    4.30
  -2   5  27   19.60    4.70
  -2   5  27   19.90    4.40
   2   5 -27   30.30    4.90
  -2  -5  27   31.10    5.30
   2   5  27   16.00    4.70
   2  -5 -27   25.10    4.20
   2   5  27   26.90    5.60
   0   0  28   54.49    6.70
   1   0  28   -3.80    2.30
  -1   0  28    0.20    2.70
  -2   0  28   47.30    6.50
   2   0  28   70.49    7.30
   2   0 -28   57.29    6.10
  -3   0  28    0.70    2.10
  -3   0 -28    4.60    2.80
   3   0  28   -0.70    2.70
   3   0 -28    5.50    2.50
   0   1  28   -4.70    2.40
   0  -1  28   -0.40    2.60
  -1  -1 -28    6.70    2.60
   1  -1  28    8.00    3.40
  -1   1  28   10.00    3.90
   1   1 -28    6.50    2.60
   1   1  28    9.00    3.50
  -1  -1  28    6.00    3.50
  -2  -1 -28    3.50    2.40
   2   1 -28    1.00    2.00
  -2   1  28   -0.20    1.90
   2  -1  28    3.20    3.00
   2   1  28   -1.10    2.80
   2  -1 -28    0.70    2.40
  -2  -1  28    1.30    2.80
   3  -1  28    3.00    3.20
  -3   1  28    8.00    3.20
   3   1 -28    8.50    2.90
  -3  -1 -28    8.40    2.90
  -3  -1  28    8.50    3.20
   3   1  28    3.60    3.20
   3  -1 -28   10.10    3.30
   0   2  28   41.40    6.20
   0  -2  28   51.09    6.40
   0  -2 -28   49.70    5.50
  -1   2  28   24.20    4.90
   1  -2  28   33.50    5.10
   1   2 -28   35.10    4.80
  -1  -2 -28   44.50    5.20
   1  -2 -28   30.90    4.50
  -1  -2  28   38.20    5.80
   1   2  28   33.20    5.30
   2  -2  28   59.09    6.80
   2   2 -28   60.59    6.40
  -2  -2 -28   62.29    6.40
  -2   2  28   76.39    7.80
  -2  -2  28   55.89    7.10
   2   2  28   58.79    7.20
   0   3 -28   -2.10    1.80
   0   3  28    3.30    3.00
   0  -3  28    0.90    3.00
   0  -3 -28   -1.10    1.60
   0   3  28    2.10    3.30
  -1   3  28   10.30    3.20
  -1   3  28   15.90    4.50
   1   3 -28   11.30    3.10
  -1  -3 -28    8.20    2.70
   1  -3  28    9.60    3.50
   1  -3 -28   13.30    3.10
   1   3  28    8.60    4.30
   1   3  28   12.00    3.90
  -1  -3  28    7.40    3.40
   2  -3  28   12.10    4.00
  -2  -3 -28    7.70    2.60
  -2   3  28    5.20    3.00
  -2   3  28    8.90    4.20
   2   3 -28    4.70    2.70
   2   3  28   12.90    4.10
   2  -3 -28    9.10    2.90
  -2  -3  28   16.40    4.20
   0  -4  28   26.90    4.80
   0   4  28   23.90    4.60
   0   4 -28   28.90    4.30
   0   4  28   29.70    5.60
   0  -4 -28   16.00    3.50
  -1   4  28   38.30    5.90
   1  -4  28   36.40    5.70
   1   4 -28   42.40    5.50
  -1   4  28   57.89    7.20
  -1  -4 -28   39.70    5.20
  -1  -4  28   53.39    6.50
   1   4  28   44.40    6.60
   1   4  28   36.90    6.10
   1  -4 -28   39.30    5.00
   0   0  29    4.60    3.40
   1   0  29   -4.60    2.90
  -1   0  29    0.20    3.40
   0   1  29    5.60    4.00
   0  -1  29    1.60    3.40
   1  -1  29    3.10    3.20
  -1   1  29   -1.10    3.70
  -1  -1  29    2.00    3.50
   1   1  29    4.20    3.70
   0   0   0    0.00    0.00

_computing_structure_solution     'SHELXT 2018/2 (Sheldrick, 2018)'
;
_shelx_hkl_checksum              16469
_olex2_submission_special_instructions 'No special instructions were received'
