####################################################################### 
# 
# This file contains crystal structure data downloaded from the 
# Cambridge Structural Database (CSD) hosted by the Cambridge 
# Crystallographic Data Centre (CCDC).
# 
# Full information about CCDC data access policies and citation 
# guidelines are available at http://www.ccdc.cam.ac.uk/access/V1 
# 
# Audit and citation data items may have been added by the CCDC. 
# Please retain this information to preserve the provenance of 
# this file and to allow appropriate attribution of the data. 
# 
#######################################################################

data_b13b
_database_code_depnum_ccdc_archive 'CCDC 2105274'
loop_
_audit_author_name
_audit_author_address
'Cynthia S. Day'
;Wake Forest University
United States of America
;
_audit_update_record             
;
2021-08-24 deposited with the CCDC.	2021-12-17 downloaded from the CCDC.
;
_audit_creation_date             2021-08-24
_audit_creation_method           
;
Olex2 1.3
(compiled 2020.11.12 svn.r5f609507 for OlexSys, GUI svn.r6272)
;
_shelx_SHELXL_version_number     2018/3
_audit_contact_author_address    ?
_audit_contact_author_email      ?
_audit_contact_author_phone      ?
_publ_contact_author_id_orcid    ?
_publ_section_references         
;
Dolomanov, O.V., Bourhis, L.J., Gildea, R.J, Howard, J.A.K. & Puschmann, H.
 (2009), J. Appl. Cryst. 42, 339-341.

Sheldrick, G.M. (2015). Acta Cryst. A71, 3-8.

Sheldrick, G.M. (2015). Acta Cryst. C71, 3-8.
;
_chemical_name_common            ?
_chemical_name_systematic        ?
_chemical_formula_moiety         'C14 H19 N O'
_chemical_formula_sum            'C14 H19 N O'
_chemical_formula_weight         217.30
_chemical_absolute_configuration unk
_chemical_melting_point          ?
loop_
_atom_type_symbol
_atom_type_description
_atom_type_scat_dispersion_real
_atom_type_scat_dispersion_imag
_atom_type_scat_source
C C 0.0033 0.0016 'International Tables Vol C Tables 4.2.6.8 and 6.1.1.4'
H H 0.0000 0.0000 'International Tables Vol C Tables 4.2.6.8 and 6.1.1.4'
N N 0.0061 0.0033 'International Tables Vol C Tables 4.2.6.8 and 6.1.1.4'
O O 0.0106 0.0060 'International Tables Vol C Tables 4.2.6.8 and 6.1.1.4'

_shelx_space_group_comment       
;
The symmetry employed for this shelxl refinement is uniquely defined
by the following loop, which should always be used as a source of
symmetry information in preference to the above space-group names.
They are only intended as comments.
;
_space_group_crystal_system      triclinic
_space_group_IT_number           1
_space_group_name_H-M_alt        'P 1'
_space_group_name_Hall           'P 1'
loop_
_space_group_symop_operation_xyz
'x, y, z'

_cell_length_a                   6.3456(14)
_cell_length_b                   8.8661(19)
_cell_length_c                   11.507(3)
_cell_angle_alpha                77.603(3)
_cell_angle_beta                 82.686(3)
_cell_angle_gamma                72.399(3)
_cell_volume                     601.4(2)
_cell_formula_units_Z            2
_cell_measurement_reflns_used    3306
_cell_measurement_temperature    193.05
_cell_measurement_theta_max      29.965
_cell_measurement_theta_min      3.566
_shelx_estimated_absorpt_T_max   0.994
_shelx_estimated_absorpt_T_min   0.983
_exptl_absorpt_coefficient_mu    0.075
_exptl_absorpt_correction_T_max  1.0000
_exptl_absorpt_correction_T_min  0.9343
_exptl_absorpt_correction_type   ?
_exptl_absorpt_process_details   
;
SADABS-2016/2 (Bruker,2016) was used for absorption correction.
wR2(int) was 0.0675 before and 0.0411 after correction.
The Ratio of minimum to maximum transmission is 0.9343.
The \l/2 correction factor is Not present.
;
_exptl_absorpt_special_details   ?
_exptl_crystal_colour            colourless
_exptl_crystal_colour_primary    colourless
_exptl_crystal_density_diffrn    1.200
_exptl_crystal_density_meas      ?
_exptl_crystal_density_method    ?
_exptl_crystal_description       triangular-plate
_exptl_crystal_F_000             236
_exptl_crystal_preparation       ?
_exptl_crystal_recrystallization_method 
'The material was recrystallised from a mixture of DCM and pentane  by vapor diffusion at 4 degrees Celsius.'
_exptl_crystal_size_max          0.23
_exptl_crystal_size_mid          0.15
_exptl_crystal_size_min          0.08
_exptl_transmission_factor_max   ?
_exptl_transmission_factor_min   ?
_diffrn_reflns_av_R_equivalents  0.0314
_diffrn_reflns_av_unetI/netI     0.0583
_diffrn_reflns_Laue_measured_fraction_full 0.997
_diffrn_reflns_Laue_measured_fraction_max 0.981
_diffrn_reflns_limit_h_max       8
_diffrn_reflns_limit_h_min       -8
_diffrn_reflns_limit_k_max       12
_diffrn_reflns_limit_k_min       -12
_diffrn_reflns_limit_l_max       16
_diffrn_reflns_limit_l_min       -16
_diffrn_reflns_number            11368
_diffrn_reflns_point_group_measured_fraction_full 0.980
_diffrn_reflns_point_group_measured_fraction_max 0.948
_diffrn_reflns_theta_full        25.242
_diffrn_reflns_theta_max         29.965
_diffrn_reflns_theta_min         3.566
_diffrn_ambient_temperature      193.05
_diffrn_detector_area_resol_mean ?
_diffrn_measured_fraction_theta_full 0.997
_diffrn_measured_fraction_theta_max 0.981
_diffrn_measurement_device_type  'Bruker APEX-II CCD'
_diffrn_measurement_method       '\f and \w scans'
_diffrn_radiation_type           MoK\a
_diffrn_radiation_wavelength     0.71073
_diffrn_source                   ?
_diffrn_source_current           30.0
_diffrn_source_power             1.5
_diffrn_source_voltage           50.0
_diffrn_standards_number         0
_reflns_Friedel_coverage         0.932
_reflns_Friedel_fraction_full    0.963
_reflns_Friedel_fraction_max     0.914
_reflns_number_gt                5441
_reflns_number_total             6627
_reflns_special_details          
;
 Reflections were merged by SHELXL according to the crystal
 class for the calculation of statistics and refinement.
 
 _reflns_Friedel_fraction is defined as the number of unique
 Friedel pairs measured divided by the number that would be
 possible theoretically, ignoring centric projections and
 systematic absences.
;
_reflns_threshold_expression     'I > 2\s(I)'
_computing_cell_refinement       'SAINT V8.40B (?, 2016)'
_computing_data_collection       ?
_computing_data_reduction        'SAINT V8.40B (?, 2016)'
_computing_molecular_graphics    'Olex2 1.3 (Dolomanov et al., 2009)'
_computing_publication_material  'Olex2 1.3 (Dolomanov et al., 2009)'
_computing_structure_refinement  'SHELXL 2018/3 (Sheldrick, 2015)'
_computing_structure_solution    'SHELXT 2018/2 (Sheldrick, 2018)'
_refine_diff_density_max         0.357
_refine_diff_density_min         -0.203
_refine_diff_density_rms         0.051
_refine_ls_abs_structure_details 
;
 Flack x determined using 2153 quotients [(I+)-(I-)]/[(I+)+(I-)]
 (Parsons, Flack and Wagner, Acta Cryst. B69 (2013) 249-259).
;
_refine_ls_abs_structure_Flack   0.3(10)
_refine_ls_extinction_coef       .
_refine_ls_extinction_method     none
_refine_ls_goodness_of_fit_ref   1.023
_refine_ls_hydrogen_treatment    constr
_refine_ls_matrix_type           full
_refine_ls_number_parameters     293
_refine_ls_number_reflns         6627
_refine_ls_number_restraints     3
_refine_ls_R_factor_all          0.0683
_refine_ls_R_factor_gt           0.0552
_refine_ls_restrained_S_all      1.022
_refine_ls_shift/su_max          0.000
_refine_ls_shift/su_mean         0.000
_refine_ls_structure_factor_coef Fsqd
_refine_ls_weighting_details     
'w=1/[\s^2^(Fo^2^)+(0.0861P)^2^] where P=(Fo^2^+2Fc^2^)/3'
_refine_ls_weighting_scheme      calc
_refine_ls_wR_factor_gt          0.1351
_refine_ls_wR_factor_ref         0.1441
_refine_special_details          ?
_olex2_refinement_description    
;
1. Fixed Uiso
 At 1.2 times of:
  All C(H) groups, All C(H,H) groups
 At 1.5 times of:
  All C(H,H,H) groups, All O(H) groups
2.a Ternary CH refined with riding coordinates:
 C21(H21), C23(H23), C4(H4), C6(H6)
2.b Secondary CH2 refined with riding coordinates:
 C22(H22A,H22B), C5(H5A,H5B), C2(H2A,H2B), C19(H19A,H19B), C25(H25A,H25B),
 C7(H7A,H7B), C8(H8A,H8B), C24(H24A,H24B)
2.c Aromatic/amide H refined with riding coordinates:
 C16(H16), C11(H11), C14(H14), C13(H13), C33(H33), C29(H29), C12(H12),
 C30(H30), C31(H31), C32(H32)
2.d Idealised Me refined as rotating group:
 C26(H26A,H26B,H26C), C9(H9A,H9B,H9C)
2.e Idealised tetrahedral OH refined as rotating group:
 O10(H10), O27(H27)
;
_atom_sites_solution_hydrogens   geom
_atom_sites_solution_primary     dual
_atom_sites_solution_secondary   ?
loop_
_atom_site_label
_atom_site_type_symbol
_atom_site_fract_x
_atom_site_fract_y
_atom_site_fract_z
_atom_site_U_iso_or_equiv
_atom_site_adp_type
_atom_site_occupancy
_atom_site_site_symmetry_order
_atom_site_calc_flag
_atom_site_refinement_flags_posn
_atom_site_refinement_flags_adp
_atom_site_refinement_flags_occupancy
_atom_site_disorder_assembly
_atom_site_disorder_group
O10 O -0.7741(3) -0.0411(2) -0.48602(17) 0.0270(4) Uani 1 1 d . . . . .
H10 H -0.729830 0.031887 -0.532263 0.040 Uiso 1 1 calc R U . . .
O27 O -0.2721(3) -0.6396(2) -0.52407(18) 0.0286(4) Uani 1 1 d . . . . .
H27 H -0.318432 -0.571346 -0.479302 0.043 Uiso 1 1 calc R U . . .
N20 N -0.6023(4) -0.7962(3) -0.6336(2) 0.0233(5) Uani 1 1 d . . . . .
N3 N -0.4341(4) -0.3996(3) -0.38054(19) 0.0242(5) Uani 1 1 d . . . . .
C17 C -0.5855(5) -0.2240(3) -0.6189(2) 0.0237(5) Uani 1 1 d . . . . .
C21 C -0.3633(4) -0.8469(3) -0.6068(2) 0.0215(5) Uani 1 1 d . . . . .
H21 H -0.312309 -0.961473 -0.564908 0.026 Uiso 1 1 calc R U . . .
C22 C -0.2042(4) -0.8053(3) -0.7117(2) 0.0239(5) Uani 1 1 d . . . . .
H22A H -0.050737 -0.868692 -0.693234 0.029 Uiso 1 1 calc R U . . .
H22B H -0.213065 -0.689745 -0.722644 0.029 Uiso 1 1 calc R U . . .
C1 C -0.6182(4) -0.1914(3) -0.4919(2) 0.0224(5) Uani 1 1 d . . . . .
C18 C -0.4296(4) -0.7251(3) -0.5192(2) 0.0224(5) Uani 1 1 d . . . . .
C16 C -0.7738(5) -0.1986(3) -0.6790(3) 0.0314(6) Uani 1 1 d . . . . .
H16 H -0.916305 -0.163637 -0.640010 0.038 Uiso 1 1 calc R U . . .
C23 C -0.2574(5) -0.8402(3) -0.8278(2) 0.0279(6) Uani 1 1 d . . . . .
H23 H -0.249343 -0.956873 -0.815940 0.033 Uiso 1 1 calc R U . . .
C4 C -0.6760(5) -0.3338(3) -0.3986(2) 0.0236(5) Uani 1 1 d . . . . .
H4 H -0.732994 -0.404151 -0.436272 0.028 Uiso 1 1 calc R U . . .
C28 C -0.4763(5) -0.8036(3) -0.3905(2) 0.0246(5) Uani 1 1 d . . . . .
C5 C -0.8224(5) -0.2814(3) -0.2898(2) 0.0265(5) Uani 1 1 d . . . . .
H5A H -0.978949 -0.268145 -0.302278 0.032 Uiso 1 1 calc R U . . .
H5B H -0.809893 -0.175920 -0.280811 0.032 Uiso 1 1 calc R U . . .
C2 C -0.4051(5) -0.2361(3) -0.4247(2) 0.0260(5) Uani 1 1 d . . . . .
H2A H -0.269580 -0.235139 -0.477664 0.031 Uiso 1 1 calc R U . . .
H2B H -0.418002 -0.173881 -0.360975 0.031 Uiso 1 1 calc R U . . .
C11 C -0.3781(5) -0.2771(4) -0.6774(3) 0.0316(6) Uani 1 1 d . . . . .
H11 H -0.247650 -0.297064 -0.637339 0.038 Uiso 1 1 calc R U . . .
C19 C -0.6345(4) -0.6421(3) -0.5930(2) 0.0264(6) Uani 1 1 d . . . . .
H19A H -0.774536 -0.608251 -0.544135 0.032 Uiso 1 1 calc R U . . .
H19B H -0.614962 -0.552905 -0.657871 0.032 Uiso 1 1 calc R U . . .
C25 C -0.6568(5) -0.7895(4) -0.7551(2) 0.0286(6) Uani 1 1 d . . . . .
H25A H -0.805215 -0.712415 -0.768461 0.034 Uiso 1 1 calc R U . . .
H25B H -0.666040 -0.896938 -0.761293 0.034 Uiso 1 1 calc R U . . .
C7 C -0.5135(5) -0.4209(4) -0.1589(2) 0.0306(6) Uani 1 1 d . . . . .
H7A H -0.498611 -0.314107 -0.155055 0.037 Uiso 1 1 calc R U . . .
H7B H -0.468740 -0.494289 -0.082639 0.037 Uiso 1 1 calc R U . . .
C8 C -0.3617(5) -0.4862(3) -0.2614(2) 0.0298(6) Uani 1 1 d . . . . .
H8A H -0.210738 -0.480006 -0.254363 0.036 Uiso 1 1 calc R U . . .
H8B H -0.353141 -0.601149 -0.254071 0.036 Uiso 1 1 calc R U . . .
C14 C -0.7558(6) -0.2237(4) -0.7954(3) 0.0381(7) Uani 1 1 d . . . . .
H14 H -0.885879 -0.206259 -0.835112 0.046 Uiso 1 1 calc R U . . .
C13 C -0.5505(7) -0.2736(4) -0.8536(3) 0.0428(8) Uani 1 1 d . . . . .
H13 H -0.538920 -0.289288 -0.933512 0.051 Uiso 1 1 calc R U . . .
C33 C -0.6907(5) -0.7902(4) -0.3373(3) 0.0328(6) Uani 1 1 d . . . . .
H33 H -0.815810 -0.733734 -0.382335 0.039 Uiso 1 1 calc R U . . .
C24 C -0.4931(5) -0.7401(4) -0.8539(2) 0.0289(6) Uani 1 1 d . . . . .
H24A H -0.529023 -0.755352 -0.930992 0.035 Uiso 1 1 calc R U . . .
H24B H -0.505714 -0.624563 -0.860237 0.035 Uiso 1 1 calc R U . . .
C29 C -0.2956(5) -0.8911(4) -0.3234(3) 0.0330(6) Uani 1 1 d . . . . .
H29 H -0.149267 -0.903546 -0.358926 0.040 Uiso 1 1 calc R U . . .
C26 C -0.0926(6) -0.8024(5) -0.9314(3) 0.0405(8) Uani 1 1 d . . . . .
H26A H 0.057136 -0.870515 -0.913289 0.061 Uiso 1 1 calc R U . . .
H26B H -0.096651 -0.688824 -0.942682 0.061 Uiso 1 1 calc R U . . .
H26C H -0.132921 -0.823637 -1.004512 0.061 Uiso 1 1 calc R U . . .
C6 C -0.7552(5) -0.4052(4) -0.1754(2) 0.0306(6) Uani 1 1 d . . . . .
H6 H -0.765216 -0.511643 -0.186400 0.037 Uiso 1 1 calc R U . . .
C12 C -0.3614(7) -0.3009(4) -0.7950(3) 0.0437(8) Uani 1 1 d . . . . .
H12 H -0.219591 -0.335979 -0.834723 0.052 Uiso 1 1 calc R U . . .
C30 C -0.3289(7) -0.9602(4) -0.2045(3) 0.0414(8) Uani 1 1 d . . . . .
H30 H -0.204949 -1.019945 -0.159399 0.050 Uiso 1 1 calc R U . . .
C9 C -0.9092(6) -0.3567(4) -0.0682(3) 0.0424(8) Uani 1 1 d . . . . .
H9A H -1.062421 -0.344032 -0.083907 0.064 Uiso 1 1 calc R U . . .
H9B H -0.896753 -0.254575 -0.054348 0.064 Uiso 1 1 calc R U . . .
H9C H -0.867335 -0.440451 0.002531 0.064 Uiso 1 1 calc R U . . .
C31 C -0.5402(7) -0.9427(4) -0.1515(3) 0.0470(9) Uani 1 1 d . . . . .
H31 H -0.561914 -0.987579 -0.069741 0.056 Uiso 1 1 calc R U . . .
C32 C -0.7199(6) -0.8597(5) -0.2181(3) 0.0451(9) Uani 1 1 d . . . . .
H32 H -0.865501 -0.849950 -0.182165 0.054 Uiso 1 1 calc R U . . .

loop_
_atom_site_aniso_label
_atom_site_aniso_U_11
_atom_site_aniso_U_22
_atom_site_aniso_U_33
_atom_site_aniso_U_23
_atom_site_aniso_U_13
_atom_site_aniso_U_12
O10 0.0367(11) 0.0170(9) 0.0267(9) -0.0026(7) 0.0043(8) -0.0105(8)
O27 0.0369(11) 0.0227(10) 0.0321(10) -0.0080(8) 0.0057(8) -0.0186(8)
N20 0.0253(11) 0.0207(11) 0.0246(10) -0.0022(8) 0.0021(8) -0.0108(9)
N3 0.0345(12) 0.0189(10) 0.0211(10) -0.0015(8) -0.0025(9) -0.0117(9)
C17 0.0379(15) 0.0146(11) 0.0210(11) -0.0010(8) -0.0008(10) -0.0128(10)
C21 0.0275(13) 0.0158(11) 0.0219(11) -0.0011(9) 0.0020(9) -0.0101(10)
C22 0.0247(12) 0.0249(13) 0.0230(12) -0.0028(9) 0.0028(10) -0.0114(10)
C1 0.0310(13) 0.0161(12) 0.0216(11) -0.0023(9) 0.0013(10) -0.0107(10)
C18 0.0284(13) 0.0184(11) 0.0227(11) -0.0032(9) 0.0032(10) -0.0124(10)
C16 0.0443(17) 0.0226(13) 0.0283(13) -0.0039(10) -0.0053(12) -0.0105(12)
C23 0.0349(15) 0.0271(14) 0.0248(12) -0.0048(10) 0.0045(11) -0.0160(11)
C4 0.0346(14) 0.0198(12) 0.0199(11) -0.0015(9) -0.0015(10) -0.0148(10)
C28 0.0357(15) 0.0186(12) 0.0228(12) -0.0071(9) 0.0060(10) -0.0136(10)
C5 0.0333(14) 0.0260(13) 0.0216(12) -0.0011(9) 0.0003(10) -0.0138(11)
C2 0.0354(14) 0.0203(12) 0.0257(12) -0.0021(10) -0.0016(10) -0.0144(11)
C11 0.0399(16) 0.0310(15) 0.0276(13) -0.0054(11) 0.0044(11) -0.0181(12)
C19 0.0303(14) 0.0190(12) 0.0278(13) -0.0032(10) 0.0015(11) -0.0061(10)
C25 0.0306(14) 0.0301(14) 0.0285(13) -0.0005(10) -0.0032(11) -0.0168(11)
C7 0.0450(17) 0.0250(14) 0.0223(12) -0.0012(10) -0.0065(11) -0.0111(12)
C8 0.0417(16) 0.0208(13) 0.0258(12) -0.0005(10) -0.0067(11) -0.0080(11)
C14 0.058(2) 0.0294(15) 0.0308(14) -0.0026(12) -0.0159(14) -0.0142(14)
C13 0.080(3) 0.0304(16) 0.0219(14) -0.0043(11) -0.0004(15) -0.0223(16)
C33 0.0383(16) 0.0322(15) 0.0310(14) -0.0088(11) 0.0079(12) -0.0167(12)
C24 0.0366(15) 0.0311(15) 0.0219(12) 0.0002(10) -0.0020(11) -0.0176(12)
C29 0.0441(17) 0.0241(14) 0.0315(14) -0.0038(11) 0.0019(12) -0.0137(12)
C26 0.0430(18) 0.056(2) 0.0265(14) -0.0086(13) 0.0084(13) -0.0231(16)
C6 0.0458(17) 0.0251(14) 0.0223(12) 0.0007(10) 0.0008(11) -0.0171(12)
C12 0.063(2) 0.0386(18) 0.0317(16) -0.0105(13) 0.0184(15) -0.0243(16)
C30 0.071(2) 0.0258(15) 0.0295(14) 0.0021(12) -0.0106(15) -0.0179(15)
C9 0.051(2) 0.046(2) 0.0250(14) 0.0003(13) 0.0033(13) -0.0135(15)
C31 0.084(3) 0.0342(18) 0.0252(14) -0.0034(12) 0.0098(16) -0.0266(18)
C32 0.059(2) 0.047(2) 0.0344(16) -0.0116(14) 0.0218(15) -0.0297(17)

_geom_special_details            
;
 All esds (except the esd in the dihedral angle between two l.s. planes)
 are estimated using the full covariance matrix.  The cell esds are taken
 into account individually in the estimation of esds in distances, angles
 and torsion angles; correlations between esds in cell parameters are only
 used when they are defined by crystal symmetry.  An approximate (isotropic)
 treatment of cell esds is used for estimating esds involving l.s. planes.
;
loop_
_geom_bond_atom_site_label_1
_geom_bond_atom_site_label_2
_geom_bond_distance
_geom_bond_site_symmetry_2
_geom_bond_publ_flag
O10 H10 0.8400 . ?
O10 C1 1.409(3) . ?
O27 H27 0.8400 . ?
O27 C18 1.415(3) . ?
N20 C21 1.498(4) . ?
N20 C19 1.486(3) . ?
N20 C25 1.467(4) . ?
N3 C4 1.492(4) . ?
N3 C2 1.488(3) . ?
N3 C8 1.475(3) . ?
C17 C1 1.527(4) . ?
C17 C16 1.392(4) . ?
C17 C11 1.394(4) . ?
C21 H21 1.0000 . ?
C21 C22 1.528(3) . ?
C21 C18 1.563(4) . ?
C22 H22A 0.9900 . ?
C22 H22B 0.9900 . ?
C22 C23 1.534(4) . ?
C1 C4 1.574(3) . ?
C1 C2 1.547(4) . ?
C18 C28 1.528(3) . ?
C18 C19 1.545(4) . ?
C16 H16 0.9500 . ?
C16 C14 1.389(4) . ?
C23 H23 1.0000 . ?
C23 C24 1.521(4) . ?
C23 C26 1.533(4) . ?
C4 H4 1.0000 . ?
C4 C5 1.529(4) . ?
C28 C33 1.401(4) . ?
C28 C29 1.394(4) . ?
C5 H5A 0.9900 . ?
C5 H5B 0.9900 . ?
C5 C6 1.536(4) . ?
C2 H2A 0.9900 . ?
C2 H2B 0.9900 . ?
C11 H11 0.9500 . ?
C11 C12 1.400(4) . ?
C19 H19A 0.9900 . ?
C19 H19B 0.9900 . ?
C25 H25A 0.9900 . ?
C25 H25B 0.9900 . ?
C25 C24 1.525(4) . ?
C7 H7A 0.9900 . ?
C7 H7B 0.9900 . ?
C7 C8 1.524(4) . ?
C7 C6 1.530(4) . ?
C8 H8A 0.9900 . ?
C8 H8B 0.9900 . ?
C14 H14 0.9500 . ?
C14 C13 1.377(6) . ?
C13 H13 0.9500 . ?
C13 C12 1.383(6) . ?
C33 H33 0.9500 . ?
C33 C32 1.391(4) . ?
C24 H24A 0.9900 . ?
C24 H24B 0.9900 . ?
C29 H29 0.9500 . ?
C29 C30 1.392(4) . ?
C26 H26A 0.9800 . ?
C26 H26B 0.9800 . ?
C26 H26C 0.9800 . ?
C6 H6 1.0000 . ?
C6 C9 1.526(4) . ?
C12 H12 0.9500 . ?
C30 H30 0.9500 . ?
C30 C31 1.378(6) . ?
C9 H9A 0.9800 . ?
C9 H9B 0.9800 . ?
C9 H9C 0.9800 . ?
C31 H31 0.9500 . ?
C31 C32 1.379(6) . ?
C32 H32 0.9500 . ?

loop_
_geom_angle_atom_site_label_1
_geom_angle_atom_site_label_2
_geom_angle_atom_site_label_3
_geom_angle
_geom_angle_site_symmetry_1
_geom_angle_site_symmetry_3
_geom_angle_publ_flag
C1 O10 H10 109.5 . . ?
C18 O27 H27 109.5 . . ?
C19 N20 C21 89.96(19) . . ?
C25 N20 C21 118.6(2) . . ?
C25 N20 C19 118.4(2) . . ?
C2 N3 C4 90.13(19) . . ?
C8 N3 C4 119.3(2) . . ?
C8 N3 C2 118.7(2) . . ?
C16 C17 C1 117.9(2) . . ?
C16 C17 C11 118.7(3) . . ?
C11 C17 C1 123.5(3) . . ?
N20 C21 H21 112.7 . . ?
N20 C21 C22 115.2(2) . . ?
N20 C21 C18 87.36(18) . . ?
C22 C21 H21 112.7 . . ?
C22 C21 C18 113.8(2) . . ?
C18 C21 H21 112.7 . . ?
C21 C22 H22A 109.2 . . ?
C21 C22 H22B 109.2 . . ?
C21 C22 C23 112.1(2) . . ?
H22A C22 H22B 107.9 . . ?
C23 C22 H22A 109.2 . . ?
C23 C22 H22B 109.2 . . ?
O10 C1 C17 110.6(2) . . ?
O10 C1 C4 113.0(2) . . ?
O10 C1 C2 117.9(2) . . ?
C17 C1 C4 112.0(2) . . ?
C17 C1 C2 116.0(2) . . ?
C2 C1 C4 85.04(18) . . ?
O27 C18 C21 112.7(2) . . ?
O27 C18 C28 110.1(2) . . ?
O27 C18 C19 117.6(2) . . ?
C28 C18 C21 113.0(2) . . ?
C28 C18 C19 115.9(2) . . ?
C19 C18 C21 85.44(19) . . ?
C17 C16 H16 119.6 . . ?
C14 C16 C17 120.8(3) . . ?
C14 C16 H16 119.6 . . ?
C22 C23 H23 108.8 . . ?
C24 C23 C22 107.8(2) . . ?
C24 C23 H23 108.8 . . ?
C24 C23 C26 111.2(2) . . ?
C26 C23 C22 111.5(2) . . ?
C26 C23 H23 108.8 . . ?
N3 C4 C1 87.18(19) . . ?
N3 C4 H4 112.7 . . ?
N3 C4 C5 115.2(2) . . ?
C1 C4 H4 112.7 . . ?
C5 C4 C1 114.1(2) . . ?
C5 C4 H4 112.7 . . ?
C33 C28 C18 123.1(3) . . ?
C29 C28 C18 117.9(2) . . ?
C29 C28 C33 119.0(3) . . ?
C4 C5 H5A 109.3 . . ?
C4 C5 H5B 109.3 . . ?
C4 C5 C6 111.5(2) . . ?
H5A C5 H5B 108.0 . . ?
C6 C5 H5A 109.3 . . ?
C6 C5 H5B 109.3 . . ?
N3 C2 C1 88.35(19) . . ?
N3 C2 H2A 113.9 . . ?
N3 C2 H2B 113.9 . . ?
C1 C2 H2A 113.9 . . ?
C1 C2 H2B 113.9 . . ?
H2A C2 H2B 111.1 . . ?
C17 C11 H11 119.9 . . ?
C17 C11 C12 120.2(3) . . ?
C12 C11 H11 119.9 . . ?
N20 C19 C18 88.45(18) . . ?
N20 C19 H19A 113.9 . . ?
N20 C19 H19B 113.9 . . ?
C18 C19 H19A 113.9 . . ?
C18 C19 H19B 113.9 . . ?
H19A C19 H19B 111.1 . . ?
N20 C25 H25A 108.5 . . ?
N20 C25 H25B 108.5 . . ?
N20 C25 C24 115.1(2) . . ?
H25A C25 H25B 107.5 . . ?
C24 C25 H25A 108.5 . . ?
C24 C25 H25B 108.5 . . ?
H7A C7 H7B 108.1 . . ?
C8 C7 H7A 109.5 . . ?
C8 C7 H7B 109.5 . . ?
C8 C7 C6 110.8(2) . . ?
C6 C7 H7A 109.5 . . ?
C6 C7 H7B 109.5 . . ?
N3 C8 C7 113.9(2) . . ?
N3 C8 H8A 108.8 . . ?
N3 C8 H8B 108.8 . . ?
C7 C8 H8A 108.8 . . ?
C7 C8 H8B 108.8 . . ?
H8A C8 H8B 107.7 . . ?
C16 C14 H14 119.8 . . ?
C13 C14 C16 120.4(3) . . ?
C13 C14 H14 119.8 . . ?
C14 C13 H13 120.2 . . ?
C14 C13 C12 119.7(3) . . ?
C12 C13 H13 120.2 . . ?
C28 C33 H33 120.1 . . ?
C32 C33 C28 119.7(3) . . ?
C32 C33 H33 120.1 . . ?
C23 C24 C25 110.5(2) . . ?
C23 C24 H24A 109.6 . . ?
C23 C24 H24B 109.6 . . ?
C25 C24 H24A 109.6 . . ?
C25 C24 H24B 109.6 . . ?
H24A C24 H24B 108.1 . . ?
C28 C29 H29 119.9 . . ?
C30 C29 C28 120.2(3) . . ?
C30 C29 H29 119.9 . . ?
C23 C26 H26A 109.5 . . ?
C23 C26 H26B 109.5 . . ?
C23 C26 H26C 109.5 . . ?
H26A C26 H26B 109.5 . . ?
H26A C26 H26C 109.5 . . ?
H26B C26 H26C 109.5 . . ?
C5 C6 H6 108.5 . . ?
C7 C6 C5 107.7(2) . . ?
C7 C6 H6 108.5 . . ?
C9 C6 C5 111.3(2) . . ?
C9 C6 C7 112.3(3) . . ?
C9 C6 H6 108.5 . . ?
C11 C12 H12 119.9 . . ?
C13 C12 C11 120.3(3) . . ?
C13 C12 H12 119.9 . . ?
C29 C30 H30 119.7 . . ?
C31 C30 C29 120.6(3) . . ?
C31 C30 H30 119.7 . . ?
C6 C9 H9A 109.5 . . ?
C6 C9 H9B 109.5 . . ?
C6 C9 H9C 109.5 . . ?
H9A C9 H9B 109.5 . . ?
H9A C9 H9C 109.5 . . ?
H9B C9 H9C 109.5 . . ?
C30 C31 H31 120.2 . . ?
C30 C31 C32 119.5(3) . . ?
C32 C31 H31 120.2 . . ?
C33 C32 H32 119.5 . . ?
C31 C32 C33 120.9(3) . . ?
C31 C32 H32 119.5 . . ?

loop_
_geom_torsion_atom_site_label_1
_geom_torsion_atom_site_label_2
_geom_torsion_atom_site_label_3
_geom_torsion_atom_site_label_4
_geom_torsion
_geom_torsion_site_symmetry_1
_geom_torsion_site_symmetry_2
_geom_torsion_site_symmetry_3
_geom_torsion_site_symmetry_4
_geom_torsion_publ_flag
O10 C1 C4 N3 -140.5(2) . . . . ?
O10 C1 C4 C5 -24.0(3) . . . . ?
O10 C1 C2 N3 135.7(2) . . . . ?
O27 C18 C28 C33 130.9(3) . . . . ?
O27 C18 C28 C29 -48.4(3) . . . . ?
O27 C18 C19 N20 135.1(2) . . . . ?
N20 C21 C22 C23 -43.0(3) . . . . ?
N20 C21 C18 O27 -139.7(2) . . . . ?
N20 C21 C18 C28 94.6(2) . . . . ?
N20 C21 C18 C19 -21.63(16) . . . . ?
N20 C25 C24 C23 50.3(3) . . . . ?
N3 C4 C5 C6 -43.7(3) . . . . ?
C17 C1 C4 N3 93.8(2) . . . . ?
C17 C1 C4 C5 -149.7(2) . . . . ?
C17 C1 C2 N3 -89.8(2) . . . . ?
C17 C16 C14 C13 -0.3(4) . . . . ?
C17 C11 C12 C13 -0.7(5) . . . . ?
C21 N20 C19 C18 -22.73(17) . . . . ?
C21 N20 C25 C24 -33.7(3) . . . . ?
C21 C22 C23 C24 59.3(3) . . . . ?
C21 C22 C23 C26 -178.4(3) . . . . ?
C21 C18 C28 C33 -102.0(3) . . . . ?
C21 C18 C28 C29 78.6(3) . . . . ?
C21 C18 C19 N20 21.80(16) . . . . ?
C22 C21 C18 O27 -23.3(3) . . . . ?
C22 C21 C18 C28 -149.0(2) . . . . ?
C22 C21 C18 C19 94.8(2) . . . . ?
C22 C23 C24 C25 -62.5(3) . . . . ?
C1 C17 C16 C14 179.0(2) . . . . ?
C1 C17 C11 C12 -178.6(3) . . . . ?
C1 C4 C5 C6 -142.4(2) . . . . ?
C18 C21 C22 C23 -141.7(2) . . . . ?
C18 C28 C33 C32 -177.5(3) . . . . ?
C18 C28 C29 C30 177.7(3) . . . . ?
C16 C17 C1 O10 -47.7(3) . . . . ?
C16 C17 C1 C4 79.3(3) . . . . ?
C16 C17 C1 C2 174.6(2) . . . . ?
C16 C17 C11 C12 1.2(4) . . . . ?
C16 C14 C13 C12 0.8(5) . . . . ?
C4 N3 C2 C1 -23.48(19) . . . . ?
C4 N3 C8 C7 -34.2(3) . . . . ?
C4 C1 C2 N3 22.28(18) . . . . ?
C4 C5 C6 C7 59.5(3) . . . . ?
C4 C5 C6 C9 -177.1(3) . . . . ?
C28 C18 C19 N20 -91.6(2) . . . . ?
C28 C33 C32 C31 -0.3(5) . . . . ?
C28 C29 C30 C31 -0.2(5) . . . . ?
C2 N3 C4 C1 23.08(19) . . . . ?
C2 N3 C4 C5 -92.4(2) . . . . ?
C2 N3 C8 C7 73.8(3) . . . . ?
C2 C1 C4 N3 -22.23(18) . . . . ?
C2 C1 C4 C5 94.2(2) . . . . ?
C11 C17 C1 O10 132.0(3) . . . . ?
C11 C17 C1 C4 -101.0(3) . . . . ?
C11 C17 C1 C2 -5.6(3) . . . . ?
C11 C17 C16 C14 -0.7(4) . . . . ?
C19 N20 C21 C22 -92.7(2) . . . . ?
C19 N20 C21 C18 22.47(17) . . . . ?
C19 N20 C25 C24 73.4(3) . . . . ?
C19 C18 C28 C33 -5.7(4) . . . . ?
C19 C18 C28 C29 174.9(2) . . . . ?
C25 N20 C21 C22 30.0(3) . . . . ?
C25 N20 C21 C18 145.2(2) . . . . ?
C25 N20 C19 C18 -145.7(2) . . . . ?
C8 N3 C4 C1 146.5(2) . . . . ?
C8 N3 C4 C5 31.1(3) . . . . ?
C8 N3 C2 C1 -147.4(2) . . . . ?
C8 C7 C6 C5 -63.1(3) . . . . ?
C8 C7 C6 C9 174.1(2) . . . . ?
C14 C13 C12 C11 -0.4(5) . . . . ?
C33 C28 C29 C30 -1.6(4) . . . . ?
C29 C28 C33 C32 1.9(4) . . . . ?
C29 C30 C31 C32 1.8(5) . . . . ?
C26 C23 C24 C25 175.1(2) . . . . ?
C6 C7 C8 N3 50.4(3) . . . . ?
C30 C31 C32 C33 -1.5(5) . . . . ?

_shelx_res_file                  
;
TITL b13b_a.res in P1
    b13b.res
    created by SHELXL-2018/3 at 17:38:15 on 24-Aug-2021
REM Old TITL b13b in P1
REM SHELXT solution in P1: R1 0.121, Rweak 0.027, Alpha 0.000
REM <I/s> 0.000 for 0 systematic absences, Orientation as input
REM Flack x = -0.105 ( 0.928 ) from 1915 Parsons' quotients
REM Formula found by SHELXT: C28 N2 O2
CELL 0.71073 6.3456 8.8661 11.5074 77.603 82.686 72.399
ZERR 2 0.0014 0.0019 0.0025 0.003 0.003 0.003
LATT -1
SFAC C H N O
UNIT 28 38 2 2

L.S. 4
PLAN  4
SIZE 0.08 0.15 0.23
TEMP -80.1
CONF
BOND
list 4
MORE -1
BOND $H
fmap 2
acta
REM <olex2.extras>
REM <HklSrc "%./b13b.hkl">
REM </olex2.extras>

WGHT    0.086100
FVAR       1.25486
O10   4   -0.774145   -0.041147   -0.486022    11.00000    0.03670    0.01700 =
         0.02667   -0.00259    0.00433   -0.01050
AFIX 147
H10   2   -0.729830    0.031887   -0.532263    11.00000   -1.50000
AFIX   0

O27   4   -0.272147   -0.639592   -0.524069    11.00000    0.03686    0.02272 =
         0.03211   -0.00803    0.00575   -0.01857
AFIX 147
H27   2   -0.318432   -0.571346   -0.479302    11.00000   -1.50000
AFIX   0
N20   3   -0.602276   -0.796212   -0.633583    11.00000    0.02525    0.02074 =
         0.02464   -0.00221    0.00211   -0.01076

N3    3   -0.434100   -0.399593   -0.380538    11.00000    0.03453    0.01885 =
         0.02112   -0.00152   -0.00254   -0.01167
C17   1   -0.585518   -0.224036   -0.618947    11.00000    0.03785    0.01459 =
         0.02097   -0.00098   -0.00076   -0.01284
C21   1   -0.363349   -0.846893   -0.606830    11.00000    0.02749    0.01578 =
         0.02190   -0.00108    0.00202   -0.01010
AFIX  13
H21   2   -0.312309   -0.961473   -0.564908    11.00000   -1.20000
AFIX   0
C22   1   -0.204248   -0.805289   -0.711659    11.00000    0.02474    0.02494 =
         0.02300   -0.00279    0.00284   -0.01141
AFIX  23
H22A  2   -0.050737   -0.868692   -0.693234    11.00000   -1.20000
H22B  2   -0.213065   -0.689745   -0.722644    11.00000   -1.20000
AFIX   0

C1    1   -0.618151   -0.191438   -0.491949    11.00000    0.03100    0.01610 =
         0.02159   -0.00235    0.00129   -0.01074
C18   1   -0.429629   -0.725143   -0.519196    11.00000    0.02836    0.01836 =
         0.02270   -0.00316    0.00320   -0.01239
C16   1   -0.773787   -0.198586   -0.679044    11.00000    0.04425    0.02265 =
         0.02831   -0.00389   -0.00528   -0.01053
AFIX  43
H16   2   -0.916305   -0.163637   -0.640010    11.00000   -1.20000
AFIX   0

C23   1   -0.257379   -0.840227   -0.827837    11.00000    0.03491    0.02714 =
         0.02476   -0.00479    0.00451   -0.01601
AFIX  13
H23   2   -0.249343   -0.956873   -0.815940    11.00000   -1.20000
AFIX   0

C4    1   -0.676000   -0.333789   -0.398628    11.00000    0.03460    0.01982 =
         0.01991   -0.00145   -0.00147   -0.01478
AFIX  13
H4    2   -0.732994   -0.404151   -0.436272    11.00000   -1.20000
AFIX   0

C28   1   -0.476324   -0.803629   -0.390484    11.00000    0.03573    0.01858 =
         0.02283   -0.00715    0.00598   -0.01363
C5    1   -0.822361   -0.281402   -0.289820    11.00000    0.03331    0.02600 =
         0.02155   -0.00107    0.00028   -0.01376
AFIX  23
H5A   2   -0.978949   -0.268145   -0.302278    11.00000   -1.20000
H5B   2   -0.809893   -0.175920   -0.280811    11.00000   -1.20000
AFIX   0
C2    1   -0.405123   -0.236118   -0.424699    11.00000    0.03541    0.02030 =
         0.02567   -0.00208   -0.00157   -0.01443
AFIX  23
H2A   2   -0.269580   -0.235139   -0.477664    11.00000   -1.20000
H2B   2   -0.418002   -0.173881   -0.360975    11.00000   -1.20000
AFIX   0
C11   1   -0.378100   -0.277054   -0.677405    11.00000    0.03990    0.03101 =
         0.02757   -0.00538    0.00440   -0.01808
AFIX  43
H11   2   -0.247650   -0.297064   -0.637339    11.00000   -1.20000
AFIX   0

C19   1   -0.634482   -0.642099   -0.593008    11.00000    0.03034    0.01903 =
         0.02781   -0.00315    0.00145   -0.00609
AFIX  23
H19A  2   -0.774536   -0.608251   -0.544135    11.00000   -1.20000
H19B  2   -0.614962   -0.552905   -0.657871    11.00000   -1.20000
AFIX   0
C25   1   -0.656817   -0.789497   -0.755062    11.00000    0.03064    0.03011 =
         0.02850   -0.00050   -0.00319   -0.01685
AFIX  23
H25A  2   -0.805215   -0.712415   -0.768461    11.00000   -1.20000
H25B  2   -0.666040   -0.896938   -0.761293    11.00000   -1.20000
AFIX   0

C7    1   -0.513530   -0.420882   -0.158856    11.00000    0.04497    0.02504 =
         0.02228   -0.00117   -0.00648   -0.01114
AFIX  23
H7A   2   -0.498611   -0.314107   -0.155055    11.00000   -1.20000
H7B   2   -0.468740   -0.494289   -0.082639    11.00000   -1.20000
AFIX   0
C8    1   -0.361653   -0.486168   -0.261438    11.00000    0.04170    0.02079 =
         0.02581   -0.00052   -0.00671   -0.00799
AFIX  23
H8A   2   -0.210738   -0.480006   -0.254363    11.00000   -1.20000
H8B   2   -0.353141   -0.601149   -0.254071    11.00000   -1.20000
AFIX   0
C14   1   -0.755818   -0.223668   -0.795400    11.00000    0.05769    0.02938 =
         0.03075   -0.00261   -0.01594   -0.01421
AFIX  43
H14   2   -0.885879   -0.206259   -0.835112    11.00000   -1.20000
AFIX   0
C13   1   -0.550550   -0.273634   -0.853561    11.00000    0.07953    0.03037 =
         0.02186   -0.00427   -0.00038   -0.02235
AFIX  43
H13   2   -0.538920   -0.289288   -0.933512    11.00000   -1.20000
AFIX   0

C33   1   -0.690738   -0.790165   -0.337260    11.00000    0.03830    0.03222 =
         0.03096   -0.00879    0.00790   -0.01672
AFIX  43
H33   2   -0.815810   -0.733734   -0.382335    11.00000   -1.20000
AFIX   0
C24   1   -0.493086   -0.740066   -0.853858    11.00000    0.03664    0.03112 =
         0.02191    0.00017   -0.00202   -0.01759
AFIX  23
H24A  2   -0.529023   -0.755352   -0.930992    11.00000   -1.20000
H24B  2   -0.505714   -0.624563   -0.860237    11.00000   -1.20000
AFIX   0
C29   1   -0.295613   -0.891082   -0.323387    11.00000    0.04409    0.02412 =
         0.03148   -0.00378    0.00190   -0.01366
AFIX  43
H29   2   -0.149267   -0.903546   -0.358926    11.00000   -1.20000
AFIX   0
C26   1   -0.092594   -0.802389   -0.931421    11.00000    0.04300    0.05572 =
         0.02650   -0.00858    0.00842   -0.02310
AFIX 137
H26A  2    0.057136   -0.870515   -0.913289    11.00000   -1.50000
H26B  2   -0.096651   -0.688824   -0.942682    11.00000   -1.50000
H26C  2   -0.132921   -0.823637   -1.004512    11.00000   -1.50000
AFIX   0

C6    1   -0.755231   -0.405195   -0.175433    11.00000    0.04583    0.02510 =
         0.02229    0.00071    0.00083   -0.01709
AFIX  13
H6    2   -0.765216   -0.511643   -0.186400    11.00000   -1.20000
AFIX   0
C12   1   -0.361393   -0.300913   -0.794987    11.00000    0.06344    0.03855 =
         0.03165   -0.01055    0.01844   -0.02429
AFIX  43
H12   2   -0.219591   -0.335979   -0.834723    11.00000   -1.20000
AFIX   0

C30   1   -0.328936   -0.960204   -0.204472    11.00000    0.07053    0.02577 =
         0.02947    0.00212   -0.01064   -0.01788
AFIX  43
H30   2   -0.204949   -1.019945   -0.159399    11.00000   -1.20000
AFIX   0

C9    1   -0.909210   -0.356727   -0.068196    11.00000    0.05132    0.04575 =
         0.02495    0.00026    0.00335   -0.01346
AFIX 137
H9A   2   -1.062421   -0.344032   -0.083907    11.00000   -1.50000
H9B   2   -0.896753   -0.254575   -0.054348    11.00000   -1.50000
H9C   2   -0.867335   -0.440451    0.002531    11.00000   -1.50000
AFIX   0

C31   1   -0.540206   -0.942743   -0.151541    11.00000    0.08359    0.03424 =
         0.02517   -0.00338    0.00975   -0.02658
AFIX  43
H31   2   -0.561914   -0.987579   -0.069741    11.00000   -1.20000
AFIX   0
C32   1   -0.719853   -0.859749   -0.218129    11.00000    0.05947    0.04652 =
         0.03444   -0.01160    0.02182   -0.02974
AFIX  43
H32   2   -0.865501   -0.849950   -0.182165    11.00000   -1.20000
AFIX   0
HKLF 4




REM  b13b_a.res in P1
REM wR2 = 0.1441, GooF = S = 1.023, Restrained GooF = 1.022 for all data
REM R1 = 0.0552 for 5441 Fo > 4sig(Fo) and 0.0683 for all 6627 data
REM 293 parameters refined using 3 restraints

END

WGHT      0.0861      0.0000

REM Highest difference peak  0.357,  deepest hole -0.203,  1-sigma level  0.051
Q1    1  -0.5625 -0.2169 -0.5525  11.00000  0.05    0.36
Q2    1  -0.2878 -0.8098 -0.7670  11.00000  0.05    0.33
Q3    1  -0.4696 -0.8288 -0.6385  11.00000  0.05    0.33
Q4    1  -0.4780 -0.2773 -0.6328  11.00000  0.05    0.32
;
_shelx_res_checksum              29051
_shelx_hkl_file                  
;
  -2   0   0  705.63   27.90
  -2   0   0  712.83   28.10
   2   0   0  665.23   27.60
   2   0   0  675.03   27.40
   2   0   0  715.03   27.10
  -3   0   0   83.79    4.00
  -3   0   0   88.39    4.40
   3   0   0   90.89    4.10
   3   0   0   80.39    5.00
   3   0   0   81.09    4.60
  -4   0   0    8.50    1.40
  -4   0   0    7.70    1.60
   4   0   0    3.30    1.50
   4   0   0    8.90    1.40
   4   0   0    8.80    2.00
  -5   0   0   15.10    2.30
   5   0   0   15.00    2.00
   5   0   0   16.60    3.30
   5   0   0   12.20    2.40
  -6   0   0   32.60    3.70
   6   0   0   26.80    4.80
   6   0   0   22.50    3.60
  -7   0   0   15.60    3.10
   7   0   0   25.40    5.50
   7   0   0   18.00    3.90
  -8   0   0    7.20    3.00
   8   0   0    9.60    6.00
   8   0   0    3.80    3.60
   8  -1   0    4.80    4.30
  -8   1   0    4.50    3.20
   7  -1   0    0.90    2.70
   7  -1   0    6.50    4.60
  -7   1   0   -0.70    2.00
   6  -1   0    5.10    2.40
   6  -1   0    4.20    3.40
  -6   1   0    4.70    1.90
   5  -1   0  172.28    8.30
   5  -1   0  175.98   10.20
   5  -1   0  167.28    9.10
  -5   1   0  159.38    8.00
   4  -1   0  113.39    6.20
   4  -1   0  107.99    6.90
   4  -1   0  119.79    5.90
  -4   1   0  108.09    5.60
   3  -1   0  129.69    7.00
   3  -1   0  137.19    6.60
   3  -1   0  132.59    6.20
  -3   1   0  141.09    6.10
  -3   1   0  143.79    6.60
   2  -1   0 1087.49   44.40
   2  -1   0 1136.39   43.90
  -2   1   0 1162.58   45.70
  -2   1   0 1159.38   46.00
   1  -1   0  763.52   30.60
   1  -1   0  770.82   30.20
  -1   1   0  750.62   29.60
  -1   1   0  753.22   29.70
   1   1   0 1668.23   65.29
  -2  -1   0  415.66   16.60
  -2  -1   0  407.06   16.50
   2   1   0  374.86   15.10
   2   1   0  358.06   15.10
  -3  -1   0  144.39    6.50
  -3  -1   0  146.89    6.60
   3   1   0  144.09    6.00
   3   1   0  132.09    6.70
   3   1   0  140.19    6.90
  -4  -1   0    9.10    1.50
  -4  -1   0    5.10    1.30
   4   1   0    6.10    1.80
   4   1   0    7.20    1.10
   4   1   0    5.40    1.60
  -5  -1   0  143.89    7.80
  -5  -1   0  177.48    8.50
   5   1   0  139.19    7.90
   5   1   0  150.08    8.40
  -6  -1   0   35.40    3.90
   6   1   0   28.20    3.90
   6   1   0   33.30    4.80
  -7  -1   0    0.10    1.90
   7   1   0    2.80    2.70
   7   1   0    3.00    3.70
  -8  -1   0    9.30    3.10
   8   1   0   13.40    4.30
   8   1   0    7.70    5.50
   7  -2   0    1.60    3.30
   7  -2   0    4.20    5.50
  -7   2   0    4.50    2.40
   6  -2   0   17.70    2.90
   6  -2   0   15.10    3.10
   6  -2   0   17.70    4.90
  -6   2   0   13.10    2.70
   5  -2   0  114.19    7.00
   5  -2   0  129.19    8.70
   5  -2   0  114.99    6.50
  -5   2   0  102.89    6.00
   4  -2   0  115.59    7.60
   4  -2   0  120.39    6.70
   4  -2   0  129.49    6.40
  -4   2   0  111.49    5.90
   3  -2   0   22.70    2.20
   3  -2   0   26.80    3.30
  -3   2   0   27.10    2.50
  -3   2   0   29.50    2.80
   2  -2   0   54.59    4.00
   2  -2   0   56.69    3.20
  -2   2   0   52.89    3.10
  -2   2   0   57.69    3.10
   1  -2   0  151.98    6.50
   1  -2   0  146.69    7.00
  -1   2   0  160.18    6.90
  -1   2   0  161.48    6.90
   0  -2   0 9218.28  362.16
   0  -2   0 9419.66  362.16
   0   2   0 9999.00  387.26
   0   2   0 9894.81  387.06
  -1  -2   0 2604.14  101.99
  -1  -2   0 2625.44  101.99
   1   2   0 2410.56   95.19
   1   2   0 2457.55   94.99
  -2  -2   0  339.97   14.40
  -2  -2   0  361.66   14.30
   2   2   0  316.47   13.80
   2   2   0  348.87   14.00
  -3  -2   0   33.00    2.60
  -3  -2   0   32.20    2.40
   3   2   0   30.50    2.80
   3   2   0   32.10    2.70
  -4  -2   0   60.29    3.90
  -4  -2   0   66.59    4.00
   4   2   0   59.79    4.30
   4   2   0   78.09    4.80
  -5  -2   0   48.10    3.90
  -5  -2   0   59.29    4.10
   5   2   0   46.10    4.30
   5   2   0   53.69    5.00
  -6  -2   0   64.99    4.80
   6   2   0   68.59    6.20
   6   2   0   74.69    6.70
  -7  -2   0    8.20    2.60
   7   2   0   13.70    4.40
   7   2   0    7.90    3.10
  -8  -2   0   11.30    3.40
   8   2   0    9.40    3.80
   8   2   0    5.60    5.10
   7  -3   0    9.80    4.30
  -7   3   0   12.70    3.20
   6  -3   0    3.30    2.00
   6  -3   0    4.30    4.60
   6  -3   0    4.20    2.60
  -6   3   0    0.90    1.90
   5  -3   0   16.00    2.60
   5  -3   0   12.70    2.60
   5  -3   0   14.50    4.30
  -5   3   0   15.60    2.60
   4  -3   0   75.59    6.30
   4  -3   0   64.69    4.80
   4  -3   0   62.89    4.70
  -4   3   0   65.59    4.40
   3  -3   0  114.19    7.10
   3  -3   0  114.09    6.00
  -3   3   0  112.39    6.00
  -3   3   0  113.09    5.80
   2  -3   0  375.66   16.00
   2  -3   0  360.46   16.80
   2  -3   0  397.46   15.20
  -2   3   0  376.36   15.70
  -2   3   0  378.66   15.80
  -2   3   0  370.06   16.20
   1  -3   0   35.70    2.20
   1  -3   0   36.20    2.40
   1  -3   0   39.20    3.30
  -1   3   0   41.40    3.20
  -1   3   0   38.80    2.50
  -1   3   0   43.20    2.60
   0  -3   0  210.18    9.40
   0  -3   0  209.88    8.70
   0  -3   0  193.48    8.60
   0   3   0  206.18    9.40
   0   3   0  206.68    8.80
   0   3   0  210.18    8.80
  -1  -3   0  280.37   11.50
  -1  -3   0  288.27   11.90
   1   3   0  237.18   11.00
   1   3   0  265.47   10.60
   1   3   0  256.27   10.60
   1   3   0  248.28   10.50
  -2  -3   0   47.20    3.10
  -2  -3   0   51.49    2.90
   2   3   0   44.60    2.80
   2   3   0   44.60    3.20
  -3  -3   0  571.04   24.00
  -3  -3   0  601.44   23.90
   3   3   0  542.15   21.80
   3   3   0  507.05   21.80
  -4  -3   0  402.46   17.30
  -4  -3   0  412.46   17.20
   4   3   0  371.96   16.90
   4   3   0  404.66   17.20
  -5  -3   0   86.59    5.40
  -5  -3   0   80.79    5.10
   5   3   0   81.29    5.70
   5   3   0   70.29    5.10
  -6  -3   0   15.10    3.00
  -6  -3   0   13.00    2.50
   6   3   0   11.50    2.60
   6   3   0    5.80    2.90
  -7  -3   0   23.50    3.60
   7   3   0   21.90    4.90
   7   3   0   19.80    3.90
  -8  -3   0   14.30    3.40
   8   3   0   10.30    3.90
   8   3   0   20.40    5.80
  -7   4   0   10.20    3.80
   6  -4   0   12.50    3.30
  -6   4   0    9.80    3.10
   5  -4   0   57.09    5.30
   5  -4   0   62.29    7.60
   5  -4   0   47.80    4.70
  -5   4   0   46.40    4.70
   4  -4   0   67.69    7.20
   4  -4   0   45.60    4.20
  -4   4   0   51.39    4.30
  -4   4   0   52.99    4.60
   3  -4   0   37.60    4.60
   3  -4   0   34.00    3.30
  -3   4   0   35.90    3.40
  -3   4   0   30.00    3.20
   2  -4   0  117.89    6.10
   2  -4   0  126.69    7.50
  -2   4   0  123.89    6.30
  -2   4   0  127.09    8.60
  -2   4   0  128.19    6.30
   1  -4   0  284.07   11.80
   1  -4   0  280.17   13.00
   1  -4   0  280.87   12.10
  -1   4   0  298.77   12.70
  -1   4   0  314.67   13.50
  -1   4   0  284.47   12.60
   0  -4   0  194.78    9.60
   0  -4   0  208.98    8.90
   0  -4   0  199.58    8.80
   0   4   0  203.68    8.60
   0   4   0  196.68    9.40
   0   4   0  189.18    8.70
  -1  -4   0  226.28    9.30
  -1  -4   0  216.08    9.80
   1   4   0  207.38    9.20
   1   4   0  214.48    9.30
   1   4   0  219.78    9.30
   1   4   0  205.18    9.90
  -2  -4   0  118.99    5.30
  -2  -4   0  132.19    6.20
   2   4   0  124.19    6.80
   2   4   0  126.39    6.20
   2   4   0  128.59    6.20
   2   4   0  131.09    6.10
  -3  -4   0  339.07   14.30
  -3  -4   0  330.47   14.50
   3   4   0  298.77   13.40
   3   4   0  313.47   13.70
  -4  -4   0    5.80    1.60
  -4  -4   0    5.60    1.80
   4   4   0    4.50    1.40
   4   4   0    2.60    1.90
  -5  -4   0   89.49    5.80
  -5  -4   0   86.69    5.40
   5   4   0   90.19    6.00
   5   4   0   66.39    5.10
  -6  -4   0   44.00    4.70
  -6  -4   0   39.70    4.00
   6   4   0   41.60    5.30
   6   4   0   36.90    4.40
  -7  -4   0   27.90    3.80
   7   4   0   27.20    4.10
   7   4   0   23.90    5.00
  -8  -4   0   18.20    3.50
   8   4   0    8.70    3.30
   8   4   0    0.20    4.60
   6  -5   0    8.50    3.00
  -6   5   0   10.70    3.60
   5  -5   0    2.00    2.10
  -5   5   0    6.40    2.60
   4  -5   0   53.59    4.80
   4  -5   0   67.49   10.30
  -4   5   0   56.29    4.80
   3  -5   0    2.10    1.40
   3  -5   0    3.50    3.10
  -3   5   0    4.50    1.90
  -3   5   0    2.40    1.60
   2  -5   0  403.66   17.60
   2  -5   0  416.76   19.10
  -2   5   0  406.76   17.80
  -2   5   0  428.26   17.80
   1  -5   0   98.69    5.10
   1  -5   0   88.59    5.20
   1  -5   0  118.29    6.90
  -1   5   0  109.39    5.70
  -1   5   0  103.89    5.50
  -1   5   0  107.09    6.60
   0  -5   0  830.32   34.40
   0  -5   0  856.61   34.50
   0  -5   0  888.81   35.50
   0   5   0  886.91   34.70
   0   5   0  847.82   34.90
   0   5   0  857.71   35.80
  -1  -5   0  449.66   19.60
  -1  -5   0  447.26   18.90
  -1  -5   0  455.15   18.40
   1   5   0  457.05   18.60
   1   5   0  444.36   18.70
   1   5   0  438.46   19.50
   1   5   0  447.26   18.70
  -2  -5   0    3.00    1.30
  -2  -5   0    3.20    0.90
   2   5   0    2.90    1.20
   2   5   0    3.40    1.80
   2   5   0    1.50    1.10
   2   5   0    3.90    1.20
  -3  -5   0   37.60    3.30
  -3  -5   0   36.40    3.40
   3   5   0   46.40    4.20
   3   5   0   34.20    3.30
  -4  -5   0   13.80    2.40
  -4  -5   0   13.50    2.20
   4   5   0   10.60    2.50
   4   5   0    8.80    2.10
  -5  -5   0  147.89    8.00
  -5  -5   0  151.18    8.40
   5   5   0  130.39    7.70
   5   5   0  138.59    8.50
  -6  -5   0  166.78    9.00
  -6  -5   0  169.88    9.70
   6   5   0  154.28    9.20
   6   5   0  179.28   10.60
  -7  -5   0   18.90    4.20
  -7  -5   0   20.00    3.60
   7   5   0   21.50    3.70
   7   5   0   22.80    5.00
  -8  -5   0    3.50    2.90
   8   5   0    8.30    3.00
   8   5   0   12.90    5.30
   6  -6   0   17.10    3.90
  -6   6   0   16.40    4.40
   5  -6   0    7.50    2.70
  -5   6   0    7.40    3.00
   4  -6   0   25.80    3.60
  -4   6   0   23.80    3.50
   3  -6   0  149.69    8.30
  -3   6   0  148.49    8.10
   2  -6   0  163.08    8.40
  -2   6   0  158.58    8.10
   1  -6   0    7.00    1.80
   1  -6   0    8.30    2.10
  -1   6   0   11.20    2.00
  -1   6   0    8.20    1.90
   0  -6   0   29.00    3.00
   0  -6   0   28.20    2.80
   0   6   0   24.80    3.50
   0   6   0   27.70    2.70
   0   6   0   27.30    2.80
  -1  -6   0  573.74   22.90
  -1  -6   0  543.85   23.40
   1   6   0  551.24   22.20
   1   6   0  544.65   22.40
   1   6   0  520.65   23.30
   1   6   0  516.75   22.30
  -2  -6   0   34.60    2.60
  -2  -6   0   38.70    3.80
   2   6   0   37.80    4.30
   2   6   0   37.90    3.30
   2   6   0   27.40    2.90
   2   6   0   34.70    3.20
  -3  -6   0  154.18    8.20
   3   6   0  143.19    7.50
   3   6   0  143.49    7.60
   3   6   0  155.68    8.80
   3   6   0  153.58    7.60
  -4  -6   0   32.60    3.80
  -4  -6   0   36.30    3.80
   4   6   0   33.80    4.30
   4   6   0   30.60    3.70
  -5  -6   0   54.89    4.90
  -5  -6   0   66.59    5.80
   5   6   0   46.20    4.80
   5   6   0   59.79    6.00
  -6  -6   0   89.99    6.40
  -6  -6   0   93.09    7.40
   6   6   0  102.39    8.30
   6   6   0   81.69    6.40
  -7  -6   0   90.19    7.90
  -7  -6   0   65.69    6.50
   7   6   0   69.29    6.80
   7   6   0   59.99    7.30
  -8  -6   0    2.60    3.00
   8   6   0    1.80    3.00
   8   6   0   -0.20    5.20
   5  -7   0    1.70    2.50
  -5   7   0    0.50    3.10
   4  -7   0   11.10    2.80
  -4   7   0   13.50    3.30
   3  -7   0   21.90    3.80
  -3   7   0   20.70    3.30
   2  -7   0   33.80    3.90
  -2   7   0   30.00    3.50
   1  -7   0   21.80    3.00
  -1   7   0   20.30    2.90
   0  -7   0  111.99    6.20
   0  -7   0  108.69    6.30
   0   7   0  111.39    6.30
  -1  -7   0  211.58    9.60
  -1  -7   0  201.88   10.10
   1   7   0  186.48    9.40
   1   7   0  191.78   10.80
   1   7   0  201.68    9.30
  -2  -7   0  398.16   17.30
  -2  -7   0  419.86   18.10
   2   7   0  380.86   17.00
   2   7   0  380.76   16.80
   2   7   0  392.16   17.10
   2   7   0  394.96   18.50
  -3  -7   0  200.38   10.30
   3   7   0  202.68    9.90
   3   7   0  180.88    9.60
   3   7   0  204.08   11.20
   3   7   0  192.18    9.80
  -4  -7   0    4.90    2.40
   4   7   0    5.70    3.10
   4   7   0    6.50    2.10
   4   7   0    6.10    2.20
   4   7   0    7.60    2.20
  -5  -7   0   41.60    5.10
  -5  -7   0   45.40    4.70
   5   7   0   44.90    4.90
  -6  -7   0  126.39    8.80
  -6  -7   0  119.19    7.70
   6   7   0  126.59   10.10
   6   7   0   93.49    7.40
  -7  -7   0   24.60    5.20
  -7  -7   0   19.30    3.80
   7   7   0   18.80    5.60
   7   7   0   19.90    4.40
  -8  -7   0    4.10    5.40
  -8  -7   0    4.60    3.50
   8   7   0    3.90    3.30
   8   7   0    6.10    6.10
   4  -8   0   -0.20    2.40
  -4   8   0    3.60    3.20
   3  -8   0   12.60    3.40
  -3   8   0    8.20    3.00
   2  -8   0   23.50    3.70
  -2   8   0   22.10    3.50
   1  -8   0   35.40    4.10
  -1   8   0   28.20    3.50
   0  -8   0   19.60    3.00
   0  -8   0   24.30    4.00
   0   8   0   24.10    3.20
  -1  -8   0   47.20    4.70
  -1  -8   0   42.30    3.80
   1   8   0   44.30    4.20
  -2  -8   0  100.79    6.60
   2   8   0   84.89    5.90
   2   8   0   96.79    7.80
   2   8   0   94.99    6.00
  -3  -8   0   16.20    2.90
   3   8   0   19.20    3.10
   3   8   0   17.30    4.20
   3   8   0   19.80    3.10
   3   8   0   21.60    3.30
  -4  -8   0    5.50    2.50
   4   8   0    3.20    3.30
   4   8   0    4.60    2.10
   4   8   0   -1.60    2.30
   4   8   0    3.50    2.70
  -5  -8   0   29.30    4.50
   5   8   0   31.90    4.20
   5   8   0   27.80    3.90
   5   8   0   23.50    3.90
   5   8   0   14.60    4.70
  -6  -8   0    0.20    3.40
   6   8   0    7.50    3.30
   6   8   0    7.60    3.10
   6   8   0   13.80    5.40
   6   8   0    8.80    3.70
  -7  -8   0   28.20    5.10
  -7  -8   0   34.50    6.00
   7   8   0   21.30    6.10
   7   8   0   26.30    4.70
  -8  -8   0   12.90    6.30
  -8  -8   0    2.90    4.30
   8   8   0    4.30    7.10
   8   8   0    1.90    3.70
   3  -9   0    7.60    3.70
  -3   9   0    9.40    3.70
   2  -9   0   32.10    4.50
  -2   9   0   21.20    3.70
   1  -9   0   57.89    5.50
  -1   9   0   45.00    4.70
   0  -9   0   26.00    3.50
   0   9   0   19.20    3.30
  -1  -9   0    5.30    2.40
  -1  -9   0    9.50    2.60
   1   9   0    7.70    2.70
  -2  -9   0  188.28   10.30
   2   9   0  176.38    9.70
   2   9   0  173.18    9.50
  -3  -9   0   98.59    7.20
   3   9   0   96.99    6.80
   3   9   0   88.99    8.70
   3   9   0   94.59    6.80
  -4  -9   0   42.50    5.10
   4   9   0   43.70    5.30
   4   9   0   41.40    6.30
   4   9   0   52.59    5.60
  -5  -9   0   34.30    5.00
   5   9   0   30.80    4.50
   5   9   0   32.90    4.60
   5   9   0   31.80    4.60
   5   9   0   26.50    5.80
  -6  -9   0    2.30    3.90
   6   9   0    0.50    2.30
   6   9   0    9.60    5.90
   6   9   0    0.20    3.20
   6   9   0    3.00    3.50
  -7  -9   0    8.90    5.20
   7   9   0    4.70    6.90
   7   9   0    5.90    4.60
   7   9   0   -0.50    3.00
   7   9   0   -4.30    4.20
   2 -10   0    2.10    3.40
  -2  10   0    1.30    3.10
   1 -10   0    2.30    2.90
  -1  10   0    8.00    3.10
   0 -10   0   17.00    3.60
   0  10   0   12.80    3.50
   1  10   0   18.50    3.60
  -2 -10   0   10.50    3.20
   2  10   0    7.50    2.90
  -3 -10   0   13.10    3.60
   3  10   0    8.00    3.00
   3  10   0    8.70    3.20
  -4 -10   0   11.70    3.50
   4  10   0   16.60    4.20
   4  10   0   20.50    4.50
  -5 -10   0   10.40    3.60
   5  10   0   12.30    4.30
   5  10   0    6.20    4.00
  -6 -10   0   35.10    6.40
   6  10   0   41.50    6.40
   6  10   0   45.90    6.50
   1 -11   0    6.00    3.80
  -1  11   0    5.10    3.80
   0 -11   0    4.60    4.60
   0  11   0    0.50    3.20
   1  11   0    1.80    2.90
  -2 -11   0   38.90    5.70
   2  11   0   35.50    5.30
  -3 -11   0   62.99    7.00
   3  11   0   61.29    6.50
  -4 -11   0   31.10    5.20
   4  11   0   20.00    4.80
   4  11   0   18.20    4.70
  -5 -11   0   96.89    9.30
   5  11   0   99.49    9.80
   5  11   0  119.89   10.30
   2  12   0    3.10    3.90
  -3 -12   0    5.00    4.30
   3  12   0   -0.80    4.30
   5  11  -1   41.50    6.90
   5  11  -1   43.40    7.10
  -5 -11   1   41.80    6.60
   4  11  -1   12.10    4.60
   4  11  -1    6.70    4.20
  -4 -11   1   12.90    4.20
   3  11  -1    9.00    3.90
  -3 -11   1   17.00    4.20
   2  11  -1    1.50    3.30
  -2 -11   1    4.50    3.50
   1  11  -1   49.99    5.90
   0  11  -1   23.90    4.80
  -1  11  -1   10.40    4.30
   1 -11   1   18.90    5.20
   6  10  -1   27.20    5.90
   6  10  -1   24.30    5.70
   6  10  -1   29.90    8.20
  -6 -10   1   25.90    6.00
   5  10  -1   17.00    4.70
   5  10  -1    9.70    6.30
   5  10  -1    6.10    3.90
  -5 -10   1   13.90    3.90
   4  10  -1   16.40    4.30
   4  10  -1    6.30    3.80
   4  10  -1   18.20    7.40
  -4 -10   1   20.50    4.40
   3  10  -1   34.90    5.00
   3  10  -1   37.20    5.00
  -3 -10   1   47.40    5.70
   2  10  -1   23.20    4.10
  -2 -10   1   23.30    4.10
   1  10  -1   12.70    3.30
  -1 -10   1   17.30    4.60
   0  10  -1   18.40    3.90
   0 -10   1   25.60    4.20
  -1  10  -1   12.90    3.60
   1 -10   1   12.00    3.70
  -2  10  -1    2.10    3.30
   2 -10   1    6.10    4.00
   7   9  -1   21.50    5.50
   7   9  -1   15.80    7.40
   7   9  -1   21.00    5.50
   7   9  -1   14.50    5.20
  -7  -9   1   13.50    5.90
   6   9  -1   37.90    7.40
   6   9  -1   37.70    7.30
   6   9  -1   51.89    6.30
   6   9  -1   43.30    6.00
  -6  -9   1   52.59    7.10
   5   9  -1   16.50    4.20
   5   9  -1   14.20    5.20
   5   9  -1   14.40    3.90
  -5  -9   1   10.60    3.80
   4   9  -1   67.69    7.80
   4   9  -1   72.89    6.80
   4   9  -1   80.69    7.00
  -4  -9   1   71.59    7.00
   3   9  -1  101.29    7.30
   3   9  -1   95.89    9.00
   3   9  -1  109.39    7.40
  -3  -9   1  110.29    7.80
   2   9  -1  175.48   11.60
   2   9  -1  151.78    9.00
   2   9  -1  146.09    9.00
  -2  -9   1  175.08   10.00
   1   9  -1   48.90    5.20
  -1  -9   1   53.39    7.00
  -1  -9   1   52.49    5.30
   0   9  -1    0.40    2.10
   0  -9   1    1.50    2.30
  -1   9  -1    8.40    2.90
   1  -9   1    9.50    2.90
  -2   9  -1   26.20    4.20
   2  -9   1   29.50    4.40
  -3   9  -1   18.20    4.20
   3  -9   1   12.90    3.90
   7   8  -1   16.30    4.00
   7   8  -1   18.50    6.00
  -7  -8   1   19.20    5.50
  -7  -8   1   21.60    4.50
   6   8  -1   17.60    4.10
   6   8  -1    9.30    3.20
   6   8  -1   13.80    4.20
   6   8  -1    6.20    4.90
  -6  -8   1    7.20    4.20
   5   8  -1    8.90    3.10
   5   8  -1   11.00    3.00
   5   8  -1   12.00    3.20
   5   8  -1   10.80    4.20
  -5  -8   1   13.10    3.70
   4   8  -1   85.59    6.30
   4   8  -1   82.09    6.50
   4   8  -1   87.59    8.10
   4   8  -1   84.79    6.30
  -4  -8   1   98.49    7.00
   3   8  -1  109.59    7.30
   3   8  -1  123.39    7.50
   3   8  -1  126.99    9.10
  -3  -8   1  125.09    7.80
   2   8  -1  173.28    9.30
   2   8  -1  174.18    9.30
   2   8  -1  173.78   10.80
  -2  -8   1  166.58    9.20
   1   8  -1  262.97   12.50
   1   8  -1  260.37   14.30
  -1  -8   1  287.77   12.80
  -1  -8   1  276.17   13.50
   0   8  -1   25.80    3.50
   0  -8   1   28.50    3.70
   0  -8   1   24.60    3.20
  -1   8  -1   12.60    2.80
   1  -8   1   10.80    2.60
  -2   8  -1   48.70    4.90
   2  -8   1   44.00    4.80
  -3   8  -1   26.90    4.20
   3  -8   1   19.70    3.80
  -4   8  -1   15.80    4.20
   4  -8   1   26.90    4.20
   8   7  -1   10.00    3.90
   8   7  -1   17.00    6.70
  -8  -7   1   16.00    4.20
  -8  -7   1   17.40    8.90
   7   7  -1    5.90    4.80
   7   7  -1    9.40    3.20
  -7  -7   1   11.40    3.40
  -7  -7   1    4.00    3.90
   6   7  -1   76.69    7.90
   6   7  -1   71.99    6.70
  -6  -7   1   80.89    7.50
  -6  -7   1   83.29    7.10
   5   7  -1   11.20    2.70
  -5  -7   1    7.00    3.10
  -5  -7   1    9.20    2.70
   4   7  -1   53.89    4.90
   4   7  -1   53.99    4.80
   4   7  -1   49.80    5.60
   4   7  -1   45.80    4.60
  -4  -7   1   64.89    5.80
   3   7  -1  171.38   10.20
   3   7  -1  182.18    9.00
   3   7  -1  160.38    8.60
   3   7  -1  166.98    8.90
  -3  -7   1  174.88    9.30
   2   7  -1  814.92   33.10
   2   7  -1  794.82   33.50
   2   7  -1  811.02   33.50
   2   7  -1  810.02   34.70
  -2  -7   1  810.52   33.80
   1   7  -1  532.65   23.70
   1   7  -1  510.75   22.30
   1   7  -1  525.25   22.40
  -1  -7   1  526.45   22.00
  -1  -7   1  535.35   22.80
   0   7  -1  113.29    6.50
   0   7  -1  106.49    7.80
   0  -7   1  103.19    5.90
   0  -7   1  109.19    6.40
  -1   7  -1  120.19    7.00
   1  -7   1  115.99    6.70
   2  -7   1  170.98    9.20
  -3   7  -1  105.29    7.00
   3  -7   1   99.39    7.00
  -4   7  -1   33.80    4.50
   4  -7   1   29.90    4.10
  -5   7  -1    6.00    3.60
   5  -7   1   13.00    3.60
   8   6  -1    8.80    5.60
   8   6  -1    5.30    3.30
  -8  -6   1   10.30    3.80
   7   6  -1   19.20    3.90
   7   6  -1   17.70    5.00
  -7  -6   1   11.40    3.40
  -7  -6   1   13.70    4.20
   6   6  -1   45.40    5.20
   6   6  -1   49.10    6.10
  -6  -6   1   52.69    6.00
  -6  -6   1   56.39    5.50
   5   6  -1    0.60    2.60
   5   6  -1    2.10    1.70
  -5  -6   1   -1.20    2.20
  -5  -6   1    5.30    1.90
   4   6  -1   37.60    4.00
  -4  -6   1   37.30    4.20
  -4  -6   1   38.50    4.00
   3   6  -1  216.78   10.00
   3   6  -1  199.18    9.90
   3   6  -1  210.68   11.00
   3   6  -1  200.48    9.90
  -3  -6   1  216.38   10.70
   2   6  -1   99.79    6.00
   2   6  -1  113.69    5.90
   2   6  -1  106.19    7.00
   2   6  -1  116.99    6.20
  -2  -6   1  116.89    6.50
  -2  -6   1  109.39    5.40
   1   6  -1  273.77   13.70
   1   6  -1  276.97   12.80
   1   6  -1  286.87   12.80
   1   6  -1  298.97   12.50
  -1  -6   1  292.47   12.60
  -1  -6   1  295.87   13.30
   0   6  -1    3.10    1.40
   0   6  -1    2.00    1.90
   0  -6   1    1.60    1.40
   0  -6   1    2.10    1.30
  -1   6  -1   58.69    5.80
  -1   6  -1   76.79    4.80
   1  -6   1   66.89    4.20
   1  -6   1   57.09    4.30
  -2   6  -1   12.20    2.30
   2  -6   1   11.50    2.30
  -3   6  -1   11.40    2.60
   3  -6   1    7.30    2.10
  -4   6  -1   53.99    5.10
   4  -6   1   68.79    5.80
  -5   6  -1   30.90    4.50
   5  -6   1   40.10    4.90
  -6   6  -1    7.40    4.30
   6  -6   1   16.40    4.00
   8   5  -1    1.80    4.90
   8   5  -1    7.00    3.20
  -8  -5   1   12.80    3.70
   7   5  -1    0.60    2.10
   7   5  -1    1.80    3.70
  -7  -5   1    4.70    3.60
  -7  -5   1    1.10    2.30
   6   5  -1   23.80    4.40
   6   5  -1   22.00    3.50
  -6  -5   1   30.10    3.90
  -6  -5   1   28.30    4.30
   5   5  -1  105.49    7.00
   5   5  -1   84.19    5.80
  -5  -5   1  108.79    7.10
  -5  -5   1  116.69    6.80
   4   5  -1   36.60    3.80
   4   5  -1   42.10    4.40
  -4  -5   1   41.70    3.80
  -4  -5   1   47.20    4.40
   3   5  -1  134.09    6.90
  -3  -5   1  142.59    7.60
  -3  -5   1  141.89    7.40
   2   5  -1  495.25   21.30
   2   5  -1  490.45   20.70
   2   5  -1  481.65   20.60
   2   5  -1  510.85   20.60
  -2  -5   1  541.65   22.80
  -2  -5   1  546.35   21.80
   1   5  -1  785.72   33.10
   1   5  -1  833.42   32.10
   1   5  -1  782.22   32.40
   1   5  -1  787.82   32.40
  -1  -5   1  795.12   31.60
  -1  -5   1  785.32   32.20
   0   5  -1  368.26   17.20
   0   5  -1  365.26   16.40
   0   5  -1  417.66   16.00
   0  -5   1  401.66   16.20
   0  -5   1  375.36   17.30
   0  -5   1  376.46   16.30
  -1   5  -1   72.19    5.40
  -1   5  -1   82.49    4.50
  -1   5  -1   70.59    4.10
   1  -5   1   74.09    4.10
   1  -5   1   60.29    4.20
   1  -5   1   79.79    6.00
  -2   5  -1  103.89    6.90
  -2   5  -1  101.89    5.80
   2  -5   1   91.69    5.40
   2  -5   1   89.49    7.40
  -3   5  -1   76.99    5.10
   3  -5   1   62.09    4.50
  -4   5  -1    7.50    2.30
   4  -5   1    7.70    2.10
  -5   5  -1    4.50    2.50
   5  -5   1    6.60    2.40
  -6   5  -1    4.10    2.30
   6  -5   1   -1.50    2.30
   8   4  -1    6.00    5.30
   8   4  -1    6.50    3.00
  -8  -4   1    7.80    3.10
   7   4  -1   17.70    3.40
   7   4  -1    9.80    4.00
  -7  -4   1    6.90    2.60
   6   4  -1  237.08   12.40
   6   4  -1  218.88   11.90
  -6  -4   1  239.48   12.00
  -6  -4   1  226.88   11.50
   5   4  -1  121.29    7.20
   5   4  -1  121.19    7.50
  -5  -4   1  143.69    7.90
  -5  -4   1  140.19    7.60
   4   4  -1   98.79    5.70
   4   4  -1   75.09    5.20
  -4  -4   1   82.69    5.50
  -4  -4   1   95.79    5.30
   3   4  -1    1.60    1.30
   3   4  -1    0.70    1.00
  -3  -4   1   -0.70    1.10
  -3  -4   1    0.90    1.10
   2   4  -1  358.96   14.80
   2   4  -1  348.47   14.80
   2   4  -1  352.76   14.90
   2   4  -1  336.67   15.20
  -2  -4   1  385.16   15.20
  -2  -4   1  373.26   16.20
   1   4  -1  544.25   22.50
   1   4  -1  538.05   23.00
   1   4  -1  541.35   22.50
   1   4  -1  567.74   22.20
  -1  -4   1  553.44   22.20
  -1  -4   1  555.84   22.80
   0   4  -1  369.66   17.00
   0   4  -1  374.66   16.40
   0   4  -1  425.26   16.00
   0  -4   1  372.26   15.90
   0  -4   1  396.86   16.10
  -1   4  -1  107.79    5.00
  -1   4  -1  101.19    5.30
  -1   4  -1  105.09    6.10
   1  -4   1   95.19    4.90
   1  -4   1   93.29    5.10
   1  -4   1  122.59    6.50
  -2   4  -1    0.20    1.70
  -2   4  -1    3.90    1.40
  -2   4  -1    1.60    1.00
   2  -4   1   -0.80    1.00
   2  -4   1    2.90    1.10
   2  -4   1    3.60    2.10
  -3   4  -1    5.60    1.60
  -3   4  -1    9.10    1.90
   3  -4   1    7.20    1.70
   3  -4   1    6.60    3.10
  -4   4  -1    4.20    1.80
   4  -4   1   10.20    2.50
   4  -4   1    6.40    1.80
   4  -4   1    5.50    3.60
  -5   4  -1   16.40    2.60
   5  -4   1   18.40    3.00
  -6   4  -1    5.80    2.40
   6  -4   1    5.40    2.70
  -7   4  -1   10.30    3.50
   7  -4   1   10.00    4.60
   8   3  -1   12.60    5.50
   8   3  -1    7.70    3.80
  -8  -3   1    7.00    3.00
   7   3  -1   16.30    4.40
   7   3  -1   25.50    4.10
  -7  -3   1   16.90    3.30
   6   3  -1   64.39    5.40
   6   3  -1   74.39    6.70
  -6  -3   1   70.99    5.30
  -6  -3   1   84.29    6.80
   5   3  -1  267.87   13.30
   5   3  -1  294.77   13.50
  -5  -3   1  322.67   14.20
  -5  -3   1  297.67   13.90
   4   3  -1   60.59    4.20
   4   3  -1   58.39    4.30
  -4  -3   1   68.59    4.30
  -4  -3   1   70.19    4.60
   3   3  -1  109.19    5.60
   3   3  -1  100.79    5.50
  -3  -3   1  116.09    5.70
  -3  -3   1  110.79    5.90
   2   3  -1  581.24   23.00
   2   3  -1  552.74   23.10
  -2  -3   1  600.14   24.00
  -2  -3   1  585.24   24.20
   1   3  -1 1697.83   66.99
   1   3  -1 1713.33   66.99
   1   3  -1 1615.14   67.19
   1   3  -1 1789.42   66.79
  -1  -3   1 1790.62   69.49
  -1  -3   1 1771.02   70.09
   0   3  -1  133.49    6.80
   0   3  -1  145.09    6.00
   0   3  -1  137.19    6.40
   0  -3   1  138.89    6.40
   0  -3   1  146.69    6.30
  -1   3  -1   26.70    2.80
  -1   3  -1   22.10    1.70
  -1   3  -1   22.50    2.10
   1  -3   1   22.70    1.90
   1  -3   1   21.10    2.00
   1  -3   1   23.80    2.70
  -2   3  -1   86.79    4.50
  -2   3  -1   89.29    4.60
  -2   3  -1   88.29    5.30
   2  -3   1   92.79    5.90
   2  -3   1   85.39    4.80
   2  -3   1   97.39    4.30
  -3   3  -1   15.80    2.10
  -3   3  -1   20.90    2.30
   3  -3   1   19.60    3.30
   3  -3   1   12.30    1.90
  -4   3  -1    5.90    1.70
   4  -3   1   11.30    3.20
   4  -3   1    7.70    1.90
   4  -3   1    5.90    1.80
  -5   3  -1    7.60    2.10
   5  -3   1    6.50    3.90
   5  -3   1    8.80    2.50
   5  -3   1    6.20    1.80
  -6   3  -1   -0.70    1.60
   6  -3   1   -1.20    1.90
   6  -3   1   -2.20    2.60
  -7   3  -1    8.60    2.80
   8   2  -1   59.39    7.10
   8   2  -1   55.89    7.80
  -8  -2   1   55.09    5.70
   7   2  -1   16.00    3.70
   7   2  -1   15.60    4.50
  -7  -2   1   17.40    3.30
   6   2  -1  114.99    7.90
   6   2  -1  106.69    7.30
  -6  -2   1  104.29    6.40
   5   2  -1   34.30    4.00
   5   2  -1   26.20    3.20
  -5  -2   1   43.10    3.80
  -5  -2   1   33.70    3.40
   4   2  -1   40.80    3.80
   4   2  -1   50.09    3.80
  -4  -2   1   49.50    3.60
  -4  -2   1   46.10    3.40
   3   2  -1  152.68    7.40
   3   2  -1  159.88    7.40
  -3  -2   1  178.48    8.10
  -3  -2   1  178.88    8.10
   2   2  -1  310.97   13.10
   2   2  -1  317.07   13.20
  -2  -2   1  332.57   13.50
  -2  -2   1  322.27   13.60
   1   2  -1 2971.10  112.69
   1   2  -1 2812.32  112.89
  -1  -2   1 3213.68  122.79
  -1  -2   1 3078.19  122.69
   0   2  -1 7887.71  293.17
   0   2  -1 7547.14  293.17
   0   2  -1 7191.38  293.37
   0  -2   1 7690.93  305.87
   0  -2   1 8048.49  306.17
  -1   2  -1  375.06   15.30
  -1   2  -1  358.76   14.70
  -1   2  -1  366.66   14.90
   1  -2   1  335.97   15.20
   1  -2   1  381.96   14.60
   1  -2   1  360.36   14.80
  -2   2  -1   27.40    1.70
  -2   2  -1   26.30    2.00
  -2   2  -1   27.90    2.70
  -2   2  -1   23.30    2.10
   2  -2   1   30.90    3.20
   2  -2   1   22.00    2.10
  -3   2  -1  341.97   15.30
  -3   2  -1  347.97   14.00
  -3   2  -1  351.66   14.70
   3  -2   1  362.76   15.50
   3  -2   1  333.17   14.30
   3  -2   1  321.37   14.40
  -4   2  -1  376.96   16.10
   4  -2   1  385.96   17.90
   4  -2   1  394.46   16.50
   4  -2   1  374.26   16.70
  -5   2  -1  204.88    9.90
   5  -2   1  208.78   10.10
   5  -2   1  219.98   12.30
   5  -2   1  212.08   10.60
  -6   2  -1    5.60    2.10
   6  -2   1    9.90    2.90
   6  -2   1    9.60    2.30
   6  -2   1    7.20    4.20
  -7   2  -1   25.90    3.70
   7  -2   1   28.10    4.70
   8   1  -1    5.30    5.20
   8   1  -1    0.50    3.60
  -8  -1   1   -1.30    2.40
   7   1  -1   34.70    5.50
   7   1  -1   36.10    5.10
  -7  -1   1   35.10    4.40
   6   1  -1    5.20    2.30
   6   1  -1   11.40    3.30
  -6  -1   1   11.30    2.40
   5   1  -1  248.78   11.80
   5   1  -1  232.08   11.90
  -5  -1   1  256.07   11.80
   4   1  -1   19.50    2.60
   4   1  -1   17.60    2.40
   4   1  -1   29.60    2.00
  -4  -1   1   18.00    2.20
  -4  -1   1   27.30    2.40
   3   1  -1  191.88    8.90
   3   1  -1  199.58    8.10
   3   1  -1  193.48    8.90
  -3  -1   1  203.78    8.90
  -3  -1   1  206.38    9.00
   2   1  -1  410.96   17.10
   2   1  -1  424.06   17.00
  -2  -1   1  469.65   18.70
  -2  -1   1  458.65   18.70
   1   1  -1  441.66   17.00
   1   1  -1  418.26   17.20
  -1  -1   1  438.66   17.20
  -1  -1   1  425.66   17.30
  -1   1  -1  493.35   19.60
   1  -1   1  476.55   19.00
  -2   1  -1  201.38    8.30
  -2   1  -1  205.08    8.60
   2  -1   1  208.08    9.60
   2  -1   1  202.38    9.00
   2  -1   1  222.58    9.00
  -3   1  -1   94.89    4.70
  -3   1  -1   91.29    4.30
   3  -1   1   84.59    4.70
   3  -1   1   89.19    5.60
   3  -1   1   90.99    4.60
  -4   1  -1  118.99    6.10
   4  -1   1  125.19    7.50
   4  -1   1  122.79    6.60
   4  -1   1  122.49    6.10
  -5   1  -1  134.79    6.90
   5  -1   1  154.58    8.20
   5  -1   1  141.69    7.50
   5  -1   1  148.49    9.40
  -6   1  -1    9.20    2.30
   6  -1   1    7.40    2.70
   6  -1   1    7.30    3.70
  -7   1  -1    3.80    2.80
   7  -1   1    6.30    3.10
   7  -1   1    5.30    5.20
  -8   1  -1    5.20    3.10
   8  -1   1   -0.60    3.90
   8   0  -1    2.50    5.30
   8   0  -1    4.40    4.10
  -8   0   1    6.60    3.00
   7   0  -1   39.70    6.20
   7   0  -1   34.90    5.10
  -7   0   1   31.90    4.10
   6   0  -1   13.10    3.00
   6   0  -1   21.20    4.20
  -6   0   1    9.80    2.30
   5   0  -1  122.49    7.40
   5   0  -1  137.99    6.70
   5   0  -1  125.29    8.00
  -5   0   1  125.49    6.70
   4   0  -1    5.90    1.20
   4   0  -1    4.30    1.50
   4   0  -1    4.90    1.90
  -4   0   1    7.50    1.60
  -4   0   1    7.30    1.40
   3   0  -1   17.20    1.60
   3   0  -1   19.50    2.30
   3   0  -1   19.70    2.30
  -3   0   1   24.90    1.90
  -3   0   1   17.90    1.90
   2   0  -1   23.90    1.50
   2   0  -1   20.50    2.00
  -2   0   1   22.70    1.70
  -2   0   1   22.70    1.90
   1   0  -1  687.33   26.90
  -1   0   1  696.63   27.60
  -1   0   1  705.83   27.70
  -2   0  -1 1746.93   68.79
  -2   0  -1 1780.22   68.99
   2   0   1 1734.53   70.99
   2   0   1 1896.51   70.39
   2   0   1 1771.82   70.69
  -3   0  -1  905.71   36.20
  -3   0  -1  927.51   36.40
   3   0   1  928.31   35.70
   3   0   1  884.81   36.20
   3   0   1  888.21   36.70
  -4   0  -1  126.39    5.70
  -4   0  -1  113.79    5.90
   4   0   1  120.49    5.70
   4   0   1  113.69    6.30
   4   0   1  120.49    7.00
  -5   0  -1  282.17   12.70
   5   0   1  275.87   13.70
   5   0   1  303.87   13.00
   5   0   1  307.67   14.70
  -6   0  -1   88.29    5.60
   6   0   1   98.89    8.00
   6   0   1   81.69    6.10
  -7   0  -1    7.50    2.60
   7   0   1    9.00    3.10
   7   0   1    9.00    4.50
  -8   0  -1   13.70    3.60
   8   0   1   16.60    4.50
   8  -1  -1    2.60    3.80
   8  -1  -1    4.70    6.10
  -8   1   1    1.70    3.20
   7  -1  -1   65.89    8.00
   7  -1  -1   61.19    6.60
  -7   1   1   43.60    4.80
   6  -1  -1    5.70    2.40
   6  -1  -1    3.70    3.50
  -6   1   1    5.70    2.00
   5  -1  -1   10.80    3.00
   5  -1  -1   13.50    2.10
   5  -1  -1   17.30    2.80
  -5   1   1   15.60    2.50
   4  -1  -1    9.70    1.60
   4  -1  -1    7.00    1.90
   4  -1  -1    9.40    2.30
  -4   1   1   11.20    1.90
   3  -1  -1   10.40    1.90
   3  -1  -1    8.40    1.30
  -3   1   1    9.90    1.50
  -3   1   1   10.40    1.70
   2  -1  -1   40.70    3.00
   2  -1  -1   41.70    2.40
  -2   1   1   46.20    2.80
  -2   1   1   46.00    2.70
   1  -1  -1  250.17   10.50
   1  -1  -1  258.07   10.30
  -1   1   1  262.67   10.70
  -1   1   1  266.07   10.90
  -1  -1  -1  337.57   13.50
  -2  -1  -1   33.90    1.90
  -2  -1  -1   30.90    1.90
   2   1   1   37.80    2.60
   2   1   1   34.40    2.00
   2   1   1   36.40    2.30
  -3  -1  -1  718.63   28.40
  -3  -1  -1  704.53   28.40
   3   1   1  672.83   28.70
   3   1   1  680.63   28.50
   3   1   1  750.22   27.90
  -4  -1  -1   22.10    2.10
  -4  -1  -1   22.20    2.30
   4   1   1   14.80    2.20
   4   1   1   24.10    1.90
   4   1   1   20.80    2.90
  -5  -1  -1  122.19    6.20
  -5  -1  -1  111.19    6.20
   5   1   1  119.59    7.30
   5   1   1  102.09    6.50
  -6  -1  -1   12.30    2.40
   6   1   1   18.20    3.20
   6   1   1   21.30    4.20
  -7  -1  -1   12.90    2.80
   7   1   1   12.30    4.40
   7   1   1    8.10    3.10
  -8  -1  -1    5.30    2.80
   8   1   1    4.50    3.50
   8   1   1    2.10    6.10
   7  -2  -1   39.50    7.00
   7  -2  -1   32.00    4.90
  -7   2   1   12.20    2.90
   6  -2  -1   24.70    5.10
   6  -2  -1   27.40    4.00
   6  -2  -1   29.70    3.90
  -6   2   1   26.20    3.70
   5  -2  -1   31.30    3.70
   5  -2  -1   29.70    3.20
   5  -2  -1   25.40    4.40
  -5   2   1   27.90    3.40
   4  -2  -1   -0.50    1.70
   4  -2  -1   -0.50    1.10
  -4   2   1    2.20    1.40
  -4   2   1    2.40    1.40
   3  -2  -1   67.99    3.90
   3  -2  -1   69.49    4.90
  -3   2   1   66.59    4.20
  -3   2   1   70.09    3.90
   2  -2  -1   15.50    1.60
   2  -2  -1   15.30    2.20
  -2   2   1   14.50    1.80
  -2   2   1   16.10    1.60
   1  -2  -1  257.07   11.10
   1  -2  -1  258.37   10.70
  -1   2   1  277.67   11.50
  -1   2   1  272.07   11.30
   0  -2  -1 3612.44  133.39
   0  -2  -1 3223.18  132.89
   0   2   1 3838.42  145.69
   0   2   1 3653.03  145.89
  -1  -2  -1 8216.68  317.97
  -1  -2  -1 8140.99  318.17
   1   2   1 7969.50  312.17
   1   2   1 8071.59  312.87
  -2  -2  -1   27.50    1.80
  -2  -2  -1   25.30    1.90
   2   2   1   24.00    2.20
   2   2   1   22.30    1.90
  -3  -2  -1   84.59    4.30
  -3  -2  -1   83.99    4.30
   3   2   1   84.89    4.70
   3   2   1   80.39    3.70
   3   2   1   76.49    4.50
  -4  -2  -1  122.09    6.20
  -4  -2  -1  131.49    6.20
   4   2   1  122.19    5.50
   4   2   1  122.29    6.60
   4   2   1  126.59    6.90
  -5  -2  -1  134.39    6.70
  -5  -2  -1  119.79    6.60
   5   2   1  125.29    7.00
   5   2   1  108.39    7.30
  -6  -2  -1   25.80    3.20
   6   2   1   20.20    3.40
   6   2   1   18.80    3.90
  -7  -2  -1    8.70    2.70
   7   2   1    5.40    2.80
   7   2   1    2.30    3.70
  -8  -2  -1    0.00    2.30
   8   2   1    3.70    5.30
   8   2   1    4.90    3.60
   7  -3  -1   14.40    4.00
   7  -3  -1   18.40    7.30
  -7   3   1   17.00    4.20
   6  -3  -1   13.30    2.70
   6  -3  -1   13.00    4.90
   6  -3  -1   12.70    3.20
  -6   3   1   10.60    3.00
   5  -3  -1    6.10    3.40
   5  -3  -1    4.10    2.50
   5  -3  -1    4.00    1.70
  -5   3   1    6.90    2.20
   4  -3  -1   20.20    3.60
   4  -3  -1    7.60    1.80
  -4   3   1   12.00    2.20
  -4   3   1   13.30    2.50
   3  -3  -1  220.88    9.90
   3  -3  -1  212.48   10.90
  -3   3   1  219.08   10.20
  -3   3   1  219.28    9.90
   2  -3  -1  382.86   17.00
   2  -3  -1  390.86   16.20
  -2   3   1  396.46   16.50
  -2   3   1  381.26   16.10
   1  -3  -1   17.80    2.30
   1  -3  -1   13.60    1.50
  -1   3   1   16.30    1.80
  -1   3   1   20.50    1.80
   0  -3  -1  333.07   13.40
   0  -3  -1  325.27   13.40
   0  -3  -1  326.67   14.00
   0   3   1  366.06   15.20
   0   3   1  383.26   15.40
  -1  -3  -1  557.94   21.70
  -1  -3  -1  533.85   22.00
  -1  -3  -1  548.35   22.60
   1   3   1  519.65   20.70
   1   3   1  487.55   20.00
   1   3   1  526.15   20.30
   1   3   1  467.75   20.00
  -2  -3  -1   83.89    4.10
  -2  -3  -1   83.99    4.30
   2   3   1   71.29    4.00
   2   3   1   76.69    4.40
  -3  -3  -1  422.56   16.90
  -3  -3  -1  399.36   17.10
   3   3   1  354.46   15.30
   3   3   1  363.36   15.50
  -4  -3  -1  313.17   13.70
  -4  -3  -1  319.47   13.60
   4   3   1  340.07   14.50
   4   3   1  289.47   13.90
  -5  -3  -1    3.10    1.40
  -5  -3  -1    0.90    1.60
   5   3   1   -1.30    1.90
   5   3   1    0.80    1.50
  -6  -3  -1   50.79    4.60
  -6  -3  -1   65.69    5.10
   6   3   1   45.80    4.90
   6   3   1   50.99    5.70
  -7  -3  -1   -1.80    1.60
   7   3   1   -2.20    3.40
   7   3   1    0.20    2.40
  -8  -3  -1    1.60    2.50
   8   3   1    5.40    3.50
   8   3   1    5.30    4.70
  -7   4   1   22.00    5.00
   6  -4  -1    4.30    2.90
   6  -4  -1    4.50    2.40
   6  -4  -1    5.90    5.40
  -6   4   1    5.10    2.90
   5  -4  -1   15.20    2.80
   5  -4  -1   11.00    4.50
   5  -4  -1   10.00    2.80
  -5   4   1   12.90    2.80
   4  -4  -1  109.89    8.00
   4  -4  -1   85.49    5.60
  -4   4   1   84.29    5.40
  -4   4   1   97.19    6.10
   3  -4  -1  124.89    8.10
   3  -4  -1  130.19    6.80
  -3   4   1  134.39    6.90
  -3   4   1  134.19    7.10
   2  -4  -1    4.40    2.10
   2  -4  -1    3.70    1.30
  -2   4   1    5.80    1.40
  -2   4   1    2.10    1.10
   1  -4  -1  298.07   13.10
   1  -4  -1  330.27   12.80
   1  -4  -1  294.47   14.00
  -1   4   1  327.77   14.40
  -1   4   1  324.17   13.60
  -1   4   1  319.97   13.90
   0  -4  -1  455.75   19.00
   0  -4  -1  475.35   19.90
   0  -4  -1  474.35   19.10
   0   4   1  476.65   19.70
   0   4   1  497.75   20.40
   0   4   1  469.25   19.60
  -1  -4  -1 4556.54  182.58
  -1  -4  -1 4692.43  182.08
  -1  -4  -1 4756.52  181.68
   1   4   1 4662.13  177.78
   1   4   1 4500.05  177.68
   1   4   1 4541.85  177.88
   1   4   1 4532.45  178.48
  -2  -4  -1   80.99    4.50
  -2  -4  -1   86.99    3.80
   2   4   1   73.39    4.30
   2   4   1   80.59    4.20
   2   4   1   85.69    5.10
   2   4   1   80.49    4.20
  -3  -4  -1  335.27   15.00
  -3  -4  -1  362.06   14.80
   3   4   1  322.27   14.00
   3   4   1  298.27   13.60
  -4  -4  -1   30.10    3.00
  -4  -4  -1   40.10    3.60
   4   4   1   34.60    3.80
   4   4   1   26.20    3.00
  -5  -4  -1  118.79    6.70
  -5  -4  -1  110.59    6.20
   5   4   1   94.09    6.10
   5   4   1  107.19    6.80
  -6  -4  -1   33.20    4.00
  -6  -4  -1   25.60    3.20
   6   4   1   36.20    5.00
   6   4   1   26.20    3.60
  -7  -4  -1    2.30    2.20
   7   4   1   -1.70    3.40
   7   4   1    0.60    2.20
  -8  -4  -1    2.20    2.60
   8   4   1    0.90    4.80
   8   4   1    2.70    3.10
   6  -5  -1    3.20    2.50
  -6   5   1    3.10    3.20
   5  -5  -1   13.10    5.50
   5  -5  -1    9.00    3.30
   5  -5  -1   11.80    2.80
  -5   5   1   11.70    3.00
   4  -5  -1   55.29    4.80
   4  -5  -1   54.59    6.60
  -4   5   1   64.29    5.50
  -4   5   1   47.10    4.50
   3  -5  -1   91.19    7.20
   3  -5  -1   76.29    5.10
  -3   5   1   86.19    5.20
  -3   5   1   78.79    5.30
   2  -5  -1  181.68    8.90
   2  -5  -1  191.18   10.40
  -2   5   1  176.68    8.80
  -2   5   1  183.48    8.60
   1  -5  -1  179.08    8.80
   1  -5  -1  200.68   10.10
   1  -5  -1  192.98    8.40
  -1   5   1  204.98   10.20
  -1   5   1  185.58    9.00
  -1   5   1  189.18    8.70
   0  -5  -1  421.96   17.70
   0  -5  -1  373.36   16.50
   0  -5  -1  396.26   16.50
   0   5   1  391.86   17.00
   0   5   1  433.06   18.10
   0   5   1  394.36   16.90
  -1  -5  -1  110.09    5.20
  -1  -5  -1  107.59    5.60
  -1  -5  -1  108.19    6.40
   1   5   1  113.99    5.60
   1   5   1  108.59    5.70
   1   5   1  111.69    6.70
   1   5   1  115.89    5.70
  -2  -5  -1  290.47   11.40
  -2  -5  -1  271.67   12.20
  -2  -5  -1  259.57   12.80
   2   5   1  261.17   11.30
   2   5   1  265.57   11.40
   2   5   1  248.88   11.60
   2   5   1  272.07   12.40
  -3  -5  -1   58.19    3.90
  -3  -5  -1   59.29    4.10
   3   5   1   51.69    4.40
   3   5   1   43.60    3.50
  -4  -5  -1  108.59    5.90
  -4  -5  -1  105.39    6.20
   4   5   1   99.19    6.70
   4   5   1  103.79    6.10
  -5  -5  -1  101.09    6.20
  -5  -5  -1  110.49    6.70
   5   5   1  105.89    7.20
   5   5   1   89.29    6.10
  -6  -5  -1   63.09    5.40
  -6  -5  -1   69.09    5.80
   6   5   1   56.39    6.60
   6   5   1   56.79    5.50
  -7  -5  -1   -0.80    2.00
  -7  -5  -1   -0.30    2.70
   7   5   1    2.10    2.00
   7   5   1    0.90    3.70
  -8  -5  -1   -0.30    2.50
   8   5   1    3.60    2.60
   8   5   1   -0.10    4.90
   6  -6  -1    1.00    2.80
  -6   6   1    0.30    3.70
   5  -6  -1    7.70    2.80
  -5   6   1    7.10    3.10
   4  -6  -1    2.90    1.80
  -4   6   1    2.10    2.40
   3  -6  -1   64.39    5.30
   3  -6  -1   70.09    7.30
  -3   6   1   68.99    4.90
  -3   6   1   60.99    5.20
   2  -6  -1   91.59    7.70
   2  -6  -1   81.99    5.50
  -2   6   1   75.79    5.20
  -2   6   1   88.79    5.20
   1  -6  -1    6.30    2.70
   1  -6  -1    4.10    1.50
  -1   6   1    5.50    1.60
  -1   6   1    4.50    1.60
   0  -6  -1  112.99    5.80
   0  -6  -1  100.59    5.70
   0  -6  -1  124.29    7.50
   0   6   1  115.89    7.30
   0   6   1  115.59    5.90
   0   6   1  110.29    6.00
  -1  -6  -1  171.08    7.50
  -1  -6  -1  158.38    9.10
  -1  -6  -1  155.08    7.90
   1   6   1  141.09    7.40
   1   6   1  157.18    7.40
   1   6   1  151.28    8.60
   1   6   1  155.58    7.40
  -2  -6  -1  153.98    6.80
  -2  -6  -1  143.09    7.60
   2   6   1  144.09    7.20
   2   6   1  142.69    7.00
   2   6   1  131.39    6.90
   2   6   1  139.69    8.20
  -3  -6  -1  188.78    9.30
   3   6   1  202.48   10.20
   3   6   1  179.58    8.70
   3   6   1  184.08    8.70
   3   6   1  164.68    8.80
  -4  -6  -1   77.59    5.20
  -4  -6  -1   77.49    5.40
   4   6   1   69.39    5.10
   4   6   1   87.99    6.40
  -5  -6  -1   70.59    5.00
  -5  -6  -1   69.09    5.60
   5   6   1   75.69    5.60
   5   6   1   72.39    7.00
  -6  -6  -1   40.40    4.60
  -6  -6  -1   45.30    5.20
   6   6   1   32.90    4.30
   6   6   1   40.20    5.70
  -7  -6  -1   12.40    3.20
  -7  -6  -1   19.60    4.40
   7   6   1   15.80    3.60
   7   6   1   15.90    4.90
  -8  -6  -1   -1.30    2.80
   8   6   1    2.50    2.90
   8   6   1   11.60    6.00
   5  -7  -1    2.30    2.80
  -5   7   1    1.80    3.20
   4  -7  -1    6.70    2.70
  -4   7   1    3.00    2.80
   3  -7  -1   12.90    3.00
  -3   7   1   14.20    2.90
   2  -7  -1   16.30    2.80
  -2   7   1   16.00    2.90
   1  -7  -1  160.78    8.40
  -1   7   1  175.68    9.00
  -1   7   1  171.68    8.70
   0  -7  -1   61.39    4.30
   0  -7  -1   69.19    4.70
   0   7   1   73.89    4.70
   0   7   1   77.49    4.90
  -1  -7  -1   89.39    5.60
  -1  -7  -1   95.39    5.20
   1   7   1   82.69    5.10
   1   7   1   83.19    5.00
   1   7   1   88.69    6.90
  -2  -7  -1   57.69    3.70
  -2  -7  -1   54.39    4.70
   2   7   1   51.99    4.10
   2   7   1   55.29    5.60
   2   7   1   60.59    4.20
   2   7   1   56.49    4.10
  -3  -7  -1   55.89    4.80
   3   7   1   53.29    5.60
   3   7   1   44.70    4.40
   3   7   1   52.79    4.10
   3   7   1   51.49    4.30
  -4  -7  -1  104.89    6.60
   4   7   1  104.69    6.20
   4   7   1   91.09    6.20
   4   7   1  100.59    6.10
   4   7   1  116.09    8.20
  -5  -7  -1   67.79    5.80
  -5  -7  -1   61.09    5.70
   5   7   1   61.69    5.20
  -6  -7  -1   42.70    4.50
  -6  -7  -1   40.50    5.40
   6   7   1   40.40    6.40
   6   7   1   36.60    4.90
  -7  -7  -1   28.80    5.40
  -7  -7  -1   21.10    3.80
   7   7   1   18.60    4.00
   7   7   1   24.20    5.90
  -8  -7  -1   22.50    5.70
  -8  -7  -1   20.40    4.70
   8   7   1   14.90    6.90
   8   7   1   13.00    4.00
   4  -8  -1   24.60    4.00
  -4   8   1    6.00    3.20
   3  -8  -1   39.40    5.00
  -3   8   1   39.20    4.60
   2  -8  -1   23.60    3.80
  -2   8   1   22.40    3.40
   1  -8  -1   24.20    3.30
  -1   8   1   21.90    3.20
   0  -8  -1    4.70    1.90
   0   8   1    5.60    2.00
  -1  -8  -1   48.20    4.60
  -1  -8  -1   48.80    4.00
   1   8   1   41.30    4.10
   1   8   1   49.70    4.50
  -2  -8  -1   35.50    4.00
   2   8   1   35.60    3.80
   2   8   1   35.80    5.50
   2   8   1   35.40    3.70
   2   8   1   36.20    3.70
  -3  -8  -1    3.00    2.00
   3   8   1    4.90    3.10
   3   8   1    1.90    1.90
   3   8   1    3.80    2.10
   3   8   1    2.60    1.90
  -4  -8  -1  167.98    9.50
   4   8   1  169.58    9.40
   4   8   1  170.08   10.90
   4   8   1  163.88    9.10
   4   8   1  169.18    9.00
  -5  -8  -1   40.60    5.20
   5   8   1   40.30    4.60
   5   8   1   35.80    5.90
   5   8   1   41.70    4.80
   5   8   1   46.80    4.80
  -6  -8  -1   -1.50    2.30
  -6  -8  -1   -3.90    2.90
   6   8   1    0.80    3.00
   6   8   1   -1.80    2.00
  -7  -8  -1   38.50    6.20
  -7  -8  -1   28.00    4.90
   7   8   1   31.10    4.80
   7   8   1   17.20    6.40
  -8  -8  -1   17.60    6.30
   8   8   1   22.80    5.20
   3  -9  -1   16.30    4.10
  -3   9   1   20.30    3.90
   2  -9  -1    1.10    2.90
  -2   9   1    2.00    2.60
   1  -9  -1   63.39    5.70
  -1   9   1   63.19    5.60
   0  -9  -1   -0.40    2.10
   0   9   1    4.20    2.30
  -1  -9  -1   19.30    3.30
  -1  -9  -1   18.70    2.90
   1   9   1   14.90    2.90
  -2  -9  -1    4.50    2.60
   2   9   1    4.70    2.10
  -3  -9  -1  128.19    8.30
   3   9   1  120.79    7.50
   3   9   1  122.39    7.40
   3   9   1  116.49    7.50
  -4  -9  -1   35.60    4.70
   4   9   1   35.00    4.30
   4   9   1   24.20    3.90
   4   9   1   26.50    7.30
   4   9   1   39.40    4.40
  -5  -9  -1   23.00    4.20
   5   9   1   14.50    3.50
   5   9   1   19.50    3.80
   5   9   1   17.20    5.40
   5   9   1   15.70    3.40
  -6  -9  -1    7.30    4.00
   6   9   1    4.60    6.10
   6   9   1   11.70    4.20
   6   9   1    6.50    3.90
   6   9   1    5.50    3.20
  -7  -9  -1   30.90    6.60
   7   9   1   22.90    4.80
   2 -10  -1   57.89    6.40
  -2  10   1   42.40    5.30
   1 -10  -1   17.50    4.10
  -1  10   1   14.90    3.40
   0 -10  -1    8.70    3.10
   0  10   1    8.00    3.10
   1  10   1    6.50    2.90
  -2 -10  -1   44.10    5.20
   2  10   1   41.50    4.80
  -3 -10  -1   14.40    3.50
   3  10   1   10.40    3.10
   3  10   1   10.80    3.10
  -4 -10  -1   62.79    6.90
   4  10   1   53.29    5.90
   4  10   1   50.19    5.70
  -5 -10  -1   39.20    5.60
   5  10   1   34.80    6.10
   5  10   1   33.80    5.90
   5  10   1   31.70    5.90
  -6 -10  -1   11.40    5.10
   6  10   1    4.70    3.60
  -7 -10  -1    4.00    6.00
   7  10   1    8.00    4.20
   1 -11  -1    8.40    4.20
  -1  11   1    4.70    3.40
   0 -11  -1   16.70    4.40
   0  11   1   14.00    3.70
   1  11   1    3.20    3.00
  -2 -11  -1    5.20    4.30
   2  11   1    9.50    3.50
  -3 -11  -1   13.90    4.20
   3  11   1   13.40    4.00
  -4 -11  -1    1.60    3.10
  -5 -11  -1   69.29    7.60
  -6 -11  -1   17.70    5.70
  -3 -12  -1   10.80    4.80
  -4 -12  -1   40.70    6.60
   5  11  -2   13.10    5.40
   5  11  -2   15.80   13.50
   5  11  -2   11.90    5.40
  -5 -11   2    8.50    5.40
   4  11  -2   36.00    6.00
   4  11  -2   25.00    5.50
  -4 -11   2   40.80    6.40
   3  11  -2  131.59   10.10
   3  11  -2  134.59    9.90
  -3 -11   2  130.49   10.00
   2  11  -2   40.20    5.80
  -2 -11   2   37.20    5.50
   1  11  -2    4.30    3.50
   0  11  -2   17.10    4.60
   6  10  -2    3.70    6.80
   6  10  -2    1.40    5.20
   6  10  -2    3.90    5.80
  -6 -10   2    9.90    5.40
   5  10  -2   15.90    5.30
   5  10  -2   16.70    6.80
   5  10  -2   22.60    5.30
  -5 -10   2   10.00    4.10
   4  10  -2   -2.40    4.80
   4  10  -2   -3.60    3.30
   4  10  -2    5.10    3.70
  -4 -10   2    3.10    3.10
   3  10  -2   42.80    5.50
   3  10  -2   44.30    5.60
   3  10  -2   47.00    7.80
  -3 -10   2   51.09    6.10
   2  10  -2  220.68   12.30
  -2 -10   2  223.48   13.40
   1  10  -2   56.89    6.10
  -1 -10   2   53.89    6.20
   0  10  -2   70.89    6.70
   0 -10   2   73.29    6.70
  -1  10  -2   16.30    4.10
   1 -10   2   17.00    4.30
  -2  10  -2    2.80    3.70
   2 -10   2    9.60    4.30
   7   9  -2   12.40    5.40
   7   9  -2   13.20    5.50
   7   9  -2   10.20    7.30
  -7  -9   2   14.30    6.40
   6   9  -2   32.00    5.30
   6   9  -2   33.10    7.60
   6   9  -2   30.20    5.50
  -6  -9   2   31.00    6.10
   5   9  -2  120.19    8.90
   5   9  -2  132.89   11.60
   5   9  -2  115.39    9.10
  -5  -9   2  103.19    9.00
   4   9  -2    8.80    3.50
   4   9  -2   17.70    5.20
   4   9  -2   23.30    4.30
  -4  -9   2   24.00    4.20
   3   9  -2  208.08   13.70
   3   9  -2  242.48   12.40
   3   9  -2  221.28   12.10
  -3  -9   2  213.88   11.90
   2   9  -2  134.19    8.40
   2   9  -2  126.19    8.40
   2   9  -2  131.89   10.30
  -2  -9   2  124.49    8.10
   1   9  -2   63.89    5.80
  -1  -9   2   54.99    5.50
   0   9  -2   13.90    3.20
   0  -9   2   19.80    3.40
  -1   9  -2    2.20    2.60
   1  -9   2   -1.40    2.50
  -2   9  -2   10.10    3.40
   2  -9   2   14.60    3.90
  -3   9  -2   39.80    5.50
   3  -9   2   35.60    5.60
   7   8  -2   20.80    4.70
  -7  -8   2   18.60    5.60
  -7  -8   2   21.10    4.90
   6   8  -2    2.90    4.50
   6   8  -2    0.80    3.30
   6   8  -2    1.50    3.40
   6   8  -2    3.80    3.80
  -6  -8   2    4.30    3.80
   5   8  -2   52.89    5.80
   5   8  -2   66.89    7.60
   5   8  -2   67.59    6.30
  -5  -8   2   57.39    6.20
   4   8  -2   32.10    4.50
   4   8  -2   45.50    6.00
   4   8  -2   34.10    4.60
  -4  -8   2   40.70    4.70
   3   8  -2   93.89    6.60
   3   8  -2  110.59    9.20
   3   8  -2   82.39    6.50
  -3  -8   2   85.49    6.40
   2   8  -2    8.90    2.60
   2   8  -2    8.20    2.40
   2   8  -2    9.50    3.50
  -2  -8   2   13.00    2.80
   1   8  -2    5.70    2.20
   1   8  -2    5.30    3.20
  -1  -8   2    6.00    2.40
  -1  -8   2    6.20    2.20
   0   8  -2    0.70    1.90
   0  -8   2   -0.60    1.70
   0  -8   2    0.00    1.80
  -1   8  -2   11.80    3.00
   1  -8   2   11.70    2.90
  -2   8  -2   25.40    4.00
   2  -8   2   33.10    4.50
  -3   8  -2    0.40    2.70
   3  -8   2   -2.60    2.70
  -4   8  -2   46.90    5.70
   4  -8   2   47.90    6.00
   8   7  -2   15.90    6.80
   8   7  -2   21.00    5.00
  -8  -7   2   16.00    4.60
   7   7  -2    4.20    2.90
   7   7  -2   -0.40    4.80
  -7  -7   2    5.80    3.10
  -7  -7   2   12.60    4.60
   6   7  -2   35.60    6.00
   6   7  -2   36.40    4.80
  -6  -7   2   50.29    5.70
  -6  -7   2   53.59    6.30
   5   7  -2  140.69    8.50
   5   7  -2  137.29    8.70
   5   7  -2  120.39    7.90
  -5  -7   2  148.09    8.70
  -5  -7   2  129.29    9.10
   4   7  -2   69.99    5.70
   4   7  -2   79.99    7.30
   4   7  -2   89.39    6.10
   4   7  -2   91.69    5.90
  -4  -7   2   81.69    6.40
   3   7  -2  130.99    8.80
   3   7  -2  140.89    7.80
   3   7  -2  133.79    7.80
  -3  -7   2  140.29    8.10
   2   7  -2   32.90    3.80
   2   7  -2   36.00    4.80
   2   7  -2   39.70    4.10
  -2  -7   2   32.70    3.80
   1   7  -2   85.09    5.50
   1   7  -2   84.99    6.80
   1   7  -2   79.89    5.50
  -1  -7   2   89.29    5.90
  -1  -7   2   91.69    5.40
   0   7  -2  117.29    6.90
   0   7  -2  117.39    8.30
   0  -7   2  127.99    7.30
   0  -7   2  131.79    7.00
  -1   7  -2   21.10    3.20
   1  -7   2   26.40    3.30
  -2   7  -2   71.19    5.40
   2  -7   2   66.69    5.60
   3  -7   2  144.49    8.80
  -4   7  -2   30.00    4.50
   4  -7   2   24.60    4.00
  -5   7  -2   13.10    4.20
   5  -7   2   12.50    3.70
   8   6  -2   13.70    6.30
   8   6  -2    2.70    3.10
  -8  -6   2    3.20    3.70
   7   6  -2    8.80    4.80
   7   6  -2   18.10    3.80
  -7  -6   2   18.90    3.80
  -7  -6   2   14.90    4.50
   6   6  -2   10.20    2.70
   6   6  -2    5.60    3.60
  -6  -6   2    4.20    2.40
  -6  -6   2   14.40    3.70
   5   6  -2   30.70    3.90
   5   6  -2   37.70    4.80
  -5  -6   2   38.80    4.60
  -5  -6   2   36.30    4.00
   4   6  -2   17.50    2.70
  -4  -6   2   16.40    3.00
  -4  -6   2   17.50    2.90
   3   6  -2   11.30    2.30
   3   6  -2   18.40    2.70
   3   6  -2   11.50    2.70
   3   6  -2   18.60    2.50
  -3  -6   2   13.90    2.70
   2   6  -2   46.50    4.10
   2   6  -2   48.80    5.00
   2   6  -2   42.60    4.10
   2   6  -2   47.10    3.60
  -2  -6   2   49.70    4.40
  -2  -6   2   46.10    3.40
   1   6  -2  351.86   15.40
   1   6  -2  349.37   15.40
   1   6  -2  338.67   16.20
  -1  -6   2  378.36   17.10
  -1  -6   2  399.46   16.50
   0   6  -2   48.90    3.70
   0   6  -2   34.80    4.20
   0  -6   2   40.70    3.40
   0  -6   2   41.90    3.80
  -1   6  -2   26.70    3.00
  -1   6  -2   28.70    3.90
   1  -6   2   23.80    2.90
   1  -6   2   29.40    3.10
  -2   6  -2   15.00    2.60
   2  -6   2   16.80    2.70
  -3   6  -2    6.10    2.30
   3  -6   2    4.60    2.10
  -4   6  -2   15.00    3.10
   4  -6   2   17.90    3.30
  -5   6  -2   17.30    3.40
   5  -6   2   20.80    4.10
   8   5  -2   19.90    5.90
   8   5  -2    6.80    3.20
  -8  -5   2    8.20    3.40
   7   5  -2    1.60    2.40
   7   5  -2   -1.90    3.60
  -7  -5   2    0.60    2.40
   6   5  -2   48.70    5.70
   6   5  -2   48.60    5.10
  -6  -5   2   63.49    6.00
  -6  -5   2   51.99    5.30
   5   5  -2   49.99    4.80
   5   5  -2   60.99    5.60
  -5  -5   2   59.99    5.50
  -5  -5   2   57.09    5.10
   4   5  -2   61.09    5.00
   4   5  -2   55.59    4.30
  -4  -5   2   60.59    4.80
  -4  -5   2   55.79    4.40
   3   5  -2    8.30    1.70
  -3  -5   2    8.50    2.10
  -3  -5   2    7.90    1.90
   2   5  -2   55.39    3.50
   2   5  -2   53.49    3.70
   2   5  -2   56.09    4.40
   2   5  -2   48.60    3.70
  -2  -5   2   59.49    3.10
  -2  -5   2   49.80    4.00
   1   5  -2  309.37   13.40
   1   5  -2  279.67   13.90
   1   5  -2  324.67   12.80
   1   5  -2  290.77   13.30
  -1  -5   2  299.37   13.80
  -1  -5   2  324.37   13.20
   0   5  -2   96.89    5.90
   0   5  -2   81.19    4.90
   0  -5   2   78.39    4.50
   0  -5   2   86.69    4.90
  -1   5  -2    9.00    2.20
  -1   5  -2    8.00    1.70
   1  -5   2   10.60    1.90
   1  -5   2    9.10    1.80
  -2   5  -2    7.30    1.90
  -2   5  -2    6.80    3.40
   2  -5   2    7.10    1.80
  -3   5  -2  119.79    6.70
   3  -5   2  119.69    6.80
  -4   5  -2   75.89    5.20
   4  -5   2   84.19    5.70
  -5   5  -2    5.20    2.30
   5  -5   2    5.40    2.30
  -6   5  -2    0.00    2.20
   6  -5   2    4.70    3.00
   8   4  -2    9.10    5.90
   8   4  -2    8.70    3.40
  -8  -4   2    3.70    2.90
   7   4  -2   10.10    3.00
   7   4  -2    7.30    4.10
  -7  -4   2    3.90    2.60
   6   4  -2   53.89    5.80
   6   4  -2   38.20    4.50
  -6  -4   2   45.90    4.80
  -6  -4   2   55.69    5.30
   5   4  -2  344.87   15.60
   5   4  -2  326.87   15.50
  -5  -4   2  361.06   16.30
  -5  -4   2  371.56   16.60
   4   4  -2  101.79    6.10
   4   4  -2  109.89    6.30
  -4  -4   2  117.29    6.40
  -4  -4   2  106.29    6.40
   3   4  -2  248.28   10.90
   3   4  -2  230.28   11.00
  -3  -4   2  231.58   10.70
  -3  -4   2  234.28   10.80
   2   4  -2  176.48    8.20
   2   4  -2  166.18    8.10
   2   4  -2  178.28    7.80
   2   4  -2  162.88    8.30
  -2  -4   2  186.88    7.60
  -2  -4   2  173.18    8.60
   1   4  -2  751.42   30.80
   1   4  -2  737.03   31.20
   1   4  -2  743.73   30.80
   1   4  -2  804.32   30.30
  -1  -4   2  792.02   32.40
  -1  -4   2  806.82   31.80
   0   4  -2  487.95   20.60
   0   4  -2  479.45   20.60
   0   4  -2  476.05   21.10
   0   4  -2  536.75   19.90
   0  -4   2  445.66   19.00
   0  -4   2  483.05   19.30
  -1   4  -2   63.19    3.80
  -1   4  -2   68.39    4.70
  -1   4  -2   61.09    3.30
   1  -4   2   60.79    3.80
   1  -4   2   65.89    5.10
   1  -4   2   64.59    3.70
  -2   4  -2   11.70    1.70
  -2   4  -2   11.90    2.40
  -2   4  -2    8.50    1.70
   2  -4   2    9.70    1.80
   2  -4   2   17.70    3.50
   2  -4   2   11.30    1.60
  -3   4  -2  117.99    6.40
   3  -4   2  103.79    5.90
  -4   4  -2   64.69    4.60
   4  -4   2   71.19    4.90
  -5   4  -2   18.40    3.00
   5  -4   2   21.10    3.30
  -6   4  -2    6.90    2.50
   6  -4   2   19.60    3.70
  -7   4  -2   25.30    4.60
   7  -4   2   48.40    6.30
   8   3  -2    5.50    5.40
   8   3  -2    7.10    3.30
  -8  -3   2    6.20    3.00
   7   3  -2    1.80    3.40
   7   3  -2   -0.50    2.00
  -7  -3   2    1.20    2.00
   6   3  -2   28.20    4.10
   6   3  -2   29.20    3.80
  -6  -3   2   30.10    3.70
   5   3  -2  127.39    7.40
   5   3  -2  122.69    7.30
  -5  -3   2  139.49    7.50
  -5  -3   2  117.89    6.90
   4   3  -2   36.50    3.40
   4   3  -2   35.70    3.60
  -4  -3   2   43.90    3.80
  -4  -3   2   45.20    4.00
   3   3  -2  253.77   11.10
   3   3  -2  247.48   11.20
  -3  -3   2  279.37   12.10
  -3  -3   2  272.17   12.20
   2   3  -2  229.38   10.60
   2   3  -2  260.77   10.60
  -2  -3   2  257.07   10.80
  -2  -3   2  235.98   10.90
   1   3  -2  782.62   33.60
   1   3  -2  824.12   33.40
   1   3  -2  907.91   33.10
   1   3  -2  823.12   33.40
  -1  -3   2  932.71   36.00
  -1  -3   2  889.51   36.50
   0   3  -2  327.27   13.60
   0   3  -2  319.97   14.00
   0  -3   2  325.67   13.80
   0  -3   2  342.57   14.00
  -1   3  -2   40.20    2.60
  -1   3  -2   37.80    2.20
  -1   3  -2   40.60    3.30
   1  -3   2   48.10    2.80
   1  -3   2   39.60    2.80
   1  -3   2   47.70    4.20
  -2   3  -2  653.03   27.00
  -2   3  -2  671.03   27.60
  -2   3  -2  664.53   26.60
   2  -3   2  612.64   26.90
   2  -3   2  640.24   26.00
   2  -3   2  655.43   25.60
  -3   3  -2  106.29    5.30
  -3   3  -2  106.39    5.60
   3  -3   2   99.49    5.50
   3  -3   2   94.29    5.30
   3  -3   2  111.99    7.00
  -4   3  -2  104.89    5.90
   4  -3   2  107.19    6.10
   4  -3   2  117.59    8.30
   4  -3   2  102.29    6.10
  -5   3  -2   43.30    4.00
   5  -3   2   52.59    4.60
   5  -3   2   47.30    5.90
  -6   3  -2    3.10    2.60
   6  -3   2    5.00    2.40
  -7   3  -2   -5.90    1.80
   8   2  -2   17.80    4.90
   8   2  -2   11.20    5.30
  -8  -2   2   16.80    3.70
   7   2  -2   14.70    3.50
   7   2  -2   18.60    4.60
  -7  -2   2   11.60    3.20
   6   2  -2  113.99    7.60
   6   2  -2  101.49    6.80
  -6  -2   2  119.19    7.10
   5   2  -2  272.47   13.10
   5   2  -2  278.77   13.00
  -5  -2   2  300.47   14.00
  -5  -2   2  325.87   14.10
   4   2  -2   53.89    4.10
   4   2  -2   57.49    3.90
  -4  -2   2   63.99    4.30
  -4  -2   2   63.99    4.20
   3   2  -2  443.36   17.50
   3   2  -2  399.26   17.70
  -3  -2   2  492.45   20.00
  -3  -2   2  474.85   20.00
   2   2  -2 1225.58   48.70
   2   2  -2 1232.48   48.40
  -2  -2   2 1294.47   52.09
  -2  -2   2 1340.27   52.09
   1   2  -2  779.52   30.80
  -1  -2   2  771.22   29.00
  -1  -2   2  738.13   29.50
  -1  -2   2  700.33   29.40
   0   2  -2  465.25   19.40
   0   2  -2  490.85   19.60
   0   2  -2  487.45   19.50
   0  -2   2  553.34   21.00
   0  -2   2  487.95   20.80
  -1   2  -2  351.96   14.70
  -1   2  -2  343.27   14.30
   1  -2   2  333.37   14.60
   1  -2   2  374.86   14.50
  -2   2  -2  922.71   36.80
  -2   2  -2  952.40   37.70
  -2   2  -2  929.31   37.20
   2  -2   2  947.51   37.70
   2  -2   2  927.91   37.40
   2  -2   2  957.80   38.40
  -3   2  -2  159.98    8.00
  -3   2  -2  152.18    6.70
  -3   2  -2  156.98    7.30
   3  -2   2  155.48    8.50
   3  -2   2  147.89    7.20
   3  -2   2  150.28    7.20
  -4   2  -2   90.39    5.20
   4  -2   2  102.19    5.50
   4  -2   2   86.69    5.30
   4  -2   2  100.79    7.00
  -5   2  -2    7.80    2.00
   5  -2   2    7.80    3.50
   5  -2   2    8.20    2.20
   5  -2   2    7.60    1.90
  -6   2  -2    1.10    1.50
   6  -2   2   -0.30    2.20
   6  -2   2   -0.80    1.70
  -7   2  -2   12.40    2.80
   8   1  -2    5.50    4.90
   8   1  -2    1.50    3.60
  -8  -1   2    2.00    3.00
   7   1  -2   32.90    4.70
   7   1  -2   33.50    5.40
  -7  -1   2   41.90    4.80
   6   1  -2   -1.40    1.90
   6   1  -2    1.60    2.40
  -6  -1   2    2.60    1.90
   5   1  -2  177.78    9.30
   5   1  -2  169.28    9.00
  -5  -1   2  196.18    9.60
   4   1  -2  285.27   13.20
   4   1  -2  291.47   12.00
   4   1  -2  288.97   13.00
  -4  -1   2  322.87   13.90
  -4  -1   2  311.87   13.50
   3   1  -2  256.17   11.00
   3   1  -2  266.47   10.40
   3   1  -2  236.88   11.10
  -3  -1   2  290.07   12.40
  -3  -1   2  289.87   12.30
   2   1  -2  302.27   11.70
   2   1  -2  270.27   11.30
   2   1  -2  275.67   11.10
   2   1  -2  255.77   11.60
  -2  -1   2  295.67   12.20
  -2  -1   2  288.97   12.20
  -1  -1   2  610.44   23.10
  -1  -1   2  573.54   23.20
  -1  -1   2  554.14   23.10
   0   1  -2   76.29    3.50
   0   1  -2   76.19    3.50
   0   1  -2   75.99    3.50
   0  -1   2   69.19    3.20
  -1   1  -2  196.88    8.10
  -1   1  -2  176.08    7.80
   1  -1   2  193.98    7.90
   1  -1   2  182.48    8.00
  -2   1  -2  681.83   27.20
  -2   1  -2  696.43   27.90
  -2   1  -2  687.13   27.50
   2  -1   2  712.93   28.20
   2  -1   2  713.33   28.30
   2  -1   2  697.43   29.00
  -3   1  -2  780.32   31.60
  -3   1  -2  771.52   31.00
  -3   1  -2  765.52   30.60
   3  -1   2  716.43   30.40
   3  -1   2  782.42   30.40
   3  -1   2  765.12   31.40
  -4   1  -2    2.00    1.20
  -4   1  -2    4.20    1.30
   4  -1   2    3.40    1.40
   4  -1   2    3.30    1.20
   4  -1   2    7.20    2.30
  -5   1  -2    1.20    1.30
   5  -1   2    4.70    1.80
   5  -1   2    1.40    1.50
   5  -1   2    3.10    2.70
  -6   1  -2    1.70    1.60
   6  -1   2   -0.60    2.00
   6  -1   2    0.90    1.80
   6  -1   2    1.20    3.60
  -7   1  -2   10.00    2.70
   7  -1   2    6.00    3.00
  -8   1  -2   20.00    4.30
   8  -1   2   18.50    5.40
   8   0  -2   -3.70    4.80
   8   0  -2    4.80    3.90
  -8   0   2    1.30    3.10
   7   0  -2   58.59    6.40
   7   0  -2   63.19    7.40
  -7   0   2   60.99    5.90
   6   0  -2   32.30    4.70
   6   0  -2   24.70    3.70
  -6   0   2   32.50    3.80
   5   0  -2   77.39    5.30
   5   0  -2   65.29    5.50
  -5   0   2   71.59    4.90
   4   0  -2   46.10    3.80
   4   0  -2   54.09    3.20
   4   0  -2   52.99    4.10
  -4   0   2   49.10    3.50
   3   0  -2  371.76   14.90
   3   0  -2  356.26   15.40
  -3   0   2  417.46   16.00
  -3   0   2  371.06   16.60
  -3   0   2  380.26   16.30
   2   0  -2  631.84   25.90
   2   0  -2  671.33   25.80
  -2   0   2  710.03   28.40
  -2   0   2  674.33   28.60
  -2   0   2  748.93   28.20
  -1   0   2   20.30    1.60
  -1   0   2   19.40    1.30
  -1   0   2   19.00    1.40
   0   0   2  768.92   30.00
   0   0   2  749.23   29.90
  -1   0  -2  434.16   17.30
  -1   0  -2  425.06   17.10
  -1   0  -2  434.16   17.20
   1   0   2  484.05   19.30
  -2   0  -2  134.19    6.10
  -2   0  -2  146.29    6.60
  -2   0  -2  146.79    6.10
   2   0   2  143.89    6.40
   2   0   2  151.48    6.30
   2   0   2  131.49    6.80
  -3   0  -2  131.19    6.10
  -3   0  -2  132.89    6.00
  -3   0  -2  141.89    6.90
   3   0   2  128.99    6.90
   3   0   2  127.79    6.00
   3   0   2  133.29    6.30
  -4   0  -2  182.08    8.00
  -4   0  -2  176.18    8.20
   4   0   2  190.28    8.40
   4   0   2  176.78    9.60
   4   0   2  185.48    8.90
  -5   0  -2  184.08    8.80
   5   0   2  197.98   10.30
   5   0   2  212.18    9.70
   5   0   2  205.78   11.20
  -6   0  -2   95.59    5.80
   6   0   2  125.79    9.30
   6   0   2  117.29    7.70
  -7   0  -2    4.50    2.20
   7   0   2    5.20    2.70
  -8   0  -2   14.60    3.60
   8   0   2   20.40    4.90
   8  -1  -2    5.00    5.80
   8  -1  -2   -1.10    3.90
  -8   1   2    2.30    3.70
   7  -1  -2    0.60    2.70
   7  -1  -2    0.20    4.10
  -7   1   2    1.20    2.80
   6  -1  -2   13.30    3.30
   6  -1  -2   18.90    4.40
  -6   1   2   16.60    3.20
   5  -1  -2  190.48   10.70
   5  -1  -2  210.98    9.40
   5  -1  -2  187.58   10.10
  -5   1   2  202.08    9.90
   4  -1  -2  333.97   13.70
   4  -1  -2  302.87   14.50
  -4   1   2  345.37   14.60
  -4   1   2  330.27   15.20
   3  -1  -2   30.50    2.40
   3  -1  -2   29.00    2.90
  -3   1   2   33.10    2.80
  -3   1   2   31.90    3.00
   2  -1  -2  219.78    9.80
   2  -1  -2  233.08    9.50
  -2   1   2  221.68   10.00
  -2   1   2  235.98    9.70
   1  -1  -2  362.86   14.20
   1  -1  -2  344.87   14.20
  -1   1   2  373.46   14.80
  -1   1   2  365.06   15.10
   0  -1  -2   19.30    1.20
   0   1   2   19.70    1.40
   0   1   2   19.40    1.30
  -1  -1  -2  732.63   28.70
  -1  -1  -2  723.93   28.80
   1   1   2  761.92   30.00
  -2  -1  -2  301.17   11.70
  -2  -1  -2  280.57   12.20
  -2  -1  -2  282.57   11.80
   2   1   2  272.57   11.50
   2   1   2  297.77   11.30
   2   1   2  253.77   11.80
  -3  -1  -2  693.13   27.90
  -3  -1  -2  712.23   28.40
  -3  -1  -2  688.83   27.90
   3   1   2  693.03   26.50
   3   1   2  616.74   27.30
   3   1   2  678.73   27.10
  -4  -1  -2   54.59    3.40
  -4  -1  -2   56.69    3.50
   4   1   2   57.59    3.30
   4   1   2   51.99    3.90
   4   1   2   58.39    4.50
  -5  -1  -2  166.08    8.20
  -5  -1  -2  175.08    8.20
   5   1   2  176.98    8.30
   5   1   2  181.58    9.90
   5   1   2  178.78    9.30
  -6  -1  -2   39.50    3.80
   6   1   2   43.30    5.70
   6   1   2   48.90    5.00
  -7  -1  -2    7.60    2.50
   7   1   2   14.10    4.90
   7   1   2    8.60    3.00
  -8  -1  -2    8.30    3.00
   8   1   2    9.60    3.90
   7  -2  -2   53.09    7.60
   7  -2  -2   40.40    5.40
  -7   2   2   47.20    5.70
   6  -2  -2    4.60    4.10
   6  -2  -2    2.30    2.10
  -6   2   2    4.80    2.40
   5  -2  -2   44.80    4.70
   5  -2  -2   60.09    6.10
   5  -2  -2   54.99    4.10
  -5   2   2   55.79    4.70
   4  -2  -2   66.19    5.10
   4  -2  -2   56.59    3.90
  -4   2   2   72.89    4.50
  -4   2   2   70.89    4.90
   3  -2  -2   48.40    3.20
   3  -2  -2   49.60    4.10
  -3   2   2   59.79    3.50
  -3   2   2   46.10    3.60
   2  -2  -2   84.39    4.80
   2  -2  -2   86.79    4.30
  -2   2   2   94.69    4.60
  -2   2   2   97.09    5.10
   1  -2  -2  221.48    9.50
   1  -2  -2  212.68    9.10
  -1   2   2  224.78   10.00
  -1   2   2  238.68    9.60
   0  -2  -2 3681.53  144.19
   0  -2  -2 3849.81  143.79
   0  -2  -2 3558.84  143.89
   0   2   2 3587.34  139.89
  -1  -2  -2 4617.14  178.38
  -1  -2  -2 4542.15  178.08
   1   2   2 4299.47  170.08
   1   2   2 4431.66  169.78
  -2  -2  -2  592.64   23.60
  -2  -2  -2  601.74   24.20
  -2  -2  -2  593.54   23.80
   2   2   2  585.94   24.50
   2   2   2  616.24   23.80
  -3  -2  -2  199.88    8.40
  -3  -2  -2  186.68    8.60
  -3  -2  -2  201.48    9.30
   3   2   2  187.88    7.80
   3   2   2  173.38    8.40
   3   2   2  194.88    9.00
  -4  -2  -2  367.36   15.80
  -4  -2  -2  385.46   15.80
   4   2   2  378.76   15.40
   4   2   2  364.96   16.40
   4   2   2  389.56   16.90
  -5  -2  -2  380.16   16.20
  -5  -2  -2  373.96   16.20
   5   2   2  398.26   17.80
   5   2   2  363.16   17.10
  -6  -2  -2  109.19    6.30
  -6  -2  -2  113.89    9.00
   6   2   2  111.69    7.20
   6   2   2  108.89    8.30
  -7  -2  -2    5.50    2.30
   7   2   2    4.20    2.60
   7   2   2    0.20    3.70
  -8  -2  -2   -1.90    2.50
   8   2   2   -2.40    2.70
   7  -3  -2    0.80    5.50
   7  -3  -2    3.30    3.30
  -7   3   2    3.00    3.30
   6  -3  -2   15.80    3.50
   6  -3  -2   19.30    5.30
   6  -3  -2   17.70    3.30
  -6   3   2   11.80    3.30
   5  -3  -2   40.10    3.80
   5  -3  -2   30.30    3.90
   5  -3  -2   30.40    5.00
  -5   3   2   37.10    4.10
   4  -3  -2  121.39    7.70
   4  -3  -2  104.89    6.10
  -4   3   2  111.19    6.30
  -4   3   2  119.79    6.90
   3  -3  -2  100.89    5.40
   3  -3  -2  102.89    6.50
  -3   3   2   98.09    5.80
  -3   3   2  106.19    5.40
   2  -3  -2  479.95   20.50
   2  -3  -2  484.15   19.80
  -2   3   2  525.35   21.30
  -2   3   2  521.65   21.80
   1  -3  -2  172.88    7.80
   1  -3  -2  180.68    8.40
  -1   3   2  180.38    7.90
  -1   3   2  186.58    8.40
   0  -3  -2 1117.89   45.30
   0  -3  -2 1201.58   45.10
   0  -3  -2 1126.49   45.80
   0   3   2 1229.08   46.90
   0   3   2 1156.88   47.20
  -1  -3  -2  332.07   13.50
  -1  -3  -2  329.67   13.30
  -1  -3  -2  322.07   14.00
   1   3   2  282.87   11.70
   1   3   2  295.57   11.70
   1   3   2  290.17   12.20
   1   3   2  281.37   13.20
  -2  -3  -2    9.20    1.70
  -2  -3  -2    6.50    1.10
  -2  -3  -2    9.00    1.20
   2   3   2    9.10    1.80
   2   3   2    6.70    1.20
   2   3   2    8.40    0.90
  -3  -3  -2   36.70    2.40
  -3  -3  -2   35.00    3.30
  -3  -3  -2   35.40    2.80
   3   3   2   40.90    2.10
   3   3   2   35.30    3.60
   3   3   2   32.60    2.80
  -4  -3  -2   30.20    2.90
  -4  -3  -2   36.40    2.80
   4   3   2   37.80    3.90
   4   3   2   30.90    3.10
  -5  -3  -2   17.30    2.60
  -5  -3  -2   22.60    2.60
   5   3   2   18.20    3.40
   5   3   2   16.10    2.60
  -6  -3  -2   26.60    3.40
  -6  -3  -2   23.90    3.00
   6   3   2   19.10    3.80
   6   3   2   14.20    2.90
  -7  -3  -2    6.20    2.10
   7   3   2    0.60    2.10
   7   3   2    0.90    3.40
  -8  -3  -2    7.10    3.00
   8   3   2    2.80    3.20
   7  -4  -2   17.50    8.10
   7  -4  -2    8.20    4.40
  -7   4   2   13.30    4.50
   6  -4  -2   11.40    3.60
   6  -4  -2   10.80    3.10
   6  -4  -2   16.00    5.50
  -6   4   2    3.90    2.80
   5  -4  -2   49.90    6.60
   5  -4  -2   61.59    5.20
  -5   4   2   49.60    4.70
  -5   4   2   53.69    5.50
   4  -4  -2  144.29    7.90
   4  -4  -2  157.98    9.70
  -4   4   2  164.08    8.60
  -4   4   2  145.19    8.00
   3  -4  -2   57.29    5.70
   3  -4  -2   47.20    3.90
  -3   4   2   50.09    3.60
  -3   4   2   46.20    4.20
   2  -4  -2   81.09    5.40
   2  -4  -2   76.69    4.50
  -2   4   2   83.29    5.00
  -2   4   2   88.99    4.60
   1  -4  -2  256.37   12.60
   1  -4  -2  291.67   11.30
   1  -4  -2  268.97   11.80
  -1   4   2  279.37   11.80
  -1   4   2  279.07   12.30
   0  -4  -2  184.68    8.50
   0  -4  -2  194.48    8.40
   0  -4  -2  207.88    9.40
   0   4   2  185.18    8.60
   0   4   2  194.68    8.20
  -1  -4  -2  176.18    8.10
  -1  -4  -2  193.68    8.80
  -1  -4  -2  181.08    7.80
   1   4   2  171.68    7.90
   1   4   2  169.28    7.40
   1   4   2  160.58    7.40
   1   4   2  180.28    8.50
  -2  -4  -2  181.48    9.10
  -2  -4  -2  194.98    8.00
  -2  -4  -2  190.38    8.60
   2   4   2  158.78    7.10
   2   4   2  159.78    7.10
   2   4   2  170.48    8.20
   2   4   2  147.59    7.40
  -3  -4  -2  222.68   10.40
  -3  -4  -2  246.18    9.50
  -3  -4  -2  224.38   11.10
  -3  -4  -2  228.38   10.10
   3   4   2  233.48   10.40
   3   4   2  191.08    9.70
  -4  -4  -2   63.79    4.00
  -4  -4  -2   68.19    4.40
   4   4   2   76.49    5.40
   4   4   2   63.59    4.70
  -5  -4  -2   -0.40    1.50
  -5  -4  -2    2.30    1.40
   5   4   2    1.70    2.10
   5   4   2   -0.10    1.40
  -6  -4  -2   37.10    3.90
  -6  -4  -2   36.70    4.10
   6   4   2   27.60    3.90
   6   4   2   27.90    4.60
  -7  -4  -2    1.00    2.00
  -7  -4  -2    1.40    3.00
   7   4   2    3.40    3.70
   7   4   2    4.20    2.50
  -8  -4  -2    0.00    2.60
   8   4   2    4.50    3.50
   6  -5  -2   17.80    4.80
   6  -5  -2   18.40    3.70
   6  -5  -2    8.00    7.10
  -6   5   2   12.70    3.90
   5  -5  -2   15.90    3.10
   5  -5  -2   17.90    5.30
  -5   5   2   14.30    3.30
  -5   5   2   17.60    3.50
   4  -5  -2   60.49    5.00
   4  -5  -2   62.89    7.00
  -4   5   2   63.79    5.00
  -4   5   2   60.09    4.80
   3  -5  -2  107.79    7.70
   3  -5  -2   87.19    5.60
  -3   5   2  102.79    6.30
  -3   5   2   93.99    5.70
   2  -5  -2   52.79    5.40
   2  -5  -2   47.40    4.00
  -2   5   2   41.80    3.30
  -2   5   2   43.10    3.60
   1  -5  -2   80.79    5.90
   1  -5  -2   85.49    4.30
   1  -5  -2   75.29    4.50
  -1   5   2   89.89    4.80
  -1   5   2   86.79    5.10
   0  -5  -2   78.39    4.40
   0  -5  -2   95.69    5.70
   0  -5  -2   81.69    4.40
   0   5   2   80.59    4.80
   0   5   2   89.49    4.50
   0   5   2   94.09    5.80
  -1  -5  -2  144.99    6.90
  -1  -5  -2  143.09    6.60
  -1  -5  -2  149.88    7.80
   1   5   2  141.79    6.40
   1   5   2  142.59    6.50
   1   5   2  127.49    6.80
   1   5   2  140.19    7.70
  -2  -5  -2  713.43   28.00
  -2  -5  -2  702.53   28.70
  -2  -5  -2  694.13   29.40
   2   5   2  611.14   24.90
   2   5   2  634.74   26.10
   2   5   2  587.44   25.30
   2   5   2  620.34   24.90
  -3  -5  -2  227.08   10.20
  -3  -5  -2  225.78   10.40
  -3  -5  -2  225.78    9.30
   3   5   2  190.08    9.20
  -4  -5  -2  565.04   23.40
  -4  -5  -2  559.44   23.70
   4   5   2  555.34   23.90
   4   5   2  534.55   23.40
  -5  -5  -2   52.59    4.10
  -5  -5  -2   57.89    5.00
   5   5   2   57.59    5.80
   5   5   2   49.50    4.80
  -6  -5  -2    3.60    2.50
  -6  -5  -2    4.20    1.80
   6   5   2   -0.70    2.80
   6   5   2    4.00    2.20
  -7  -5  -2   11.70    2.80
  -7  -5  -2   17.60    3.90
   7   5   2    8.70    2.80
   7   5   2    6.60    4.00
  -8  -5  -2    3.00    2.90
   8   5   2    4.60    3.50
   6  -6  -2   14.00    3.90
  -6   6   2    8.90    4.10
   5  -6  -2   12.90    3.20
  -5   6   2    5.30    2.90
   4  -6  -2   75.89    5.80
   4  -6  -2   80.89    8.70
  -4   6   2   68.19    5.60
  -4   6   2   60.49    5.30
   3  -6  -2   54.19    6.60
   3  -6  -2   50.09    4.40
  -3   6   2   56.39    4.80
  -3   6   2   53.59    4.90
   2  -6  -2   58.29    4.70
   2  -6  -2   61.89    6.40
  -2   6   2   63.29    4.70
  -2   6   2   61.69    4.30
   1  -6  -2   47.50    5.20
   1  -6  -2   61.79    4.00
  -1   6   2   60.89    4.00
  -1   6   2   56.59    4.20
   0  -6  -2  216.28   10.30
   0  -6  -2  243.88   11.90
   0  -6  -2  231.48   10.30
   0   6   2  204.48    9.90
   0   6   2  216.18    9.60
  -1  -6  -2  107.79    5.80
  -1  -6  -2  109.69    5.60
  -1  -6  -2  119.29    7.10
   1   6   2   98.19    5.10
   1   6   2   93.89    5.50
   1   6   2  111.19    6.80
  -2  -6  -2  204.08   10.70
  -2  -6  -2  204.68    8.80
  -2  -6  -2  198.38    9.60
   2   6   2  204.58   10.20
   2   6   2  182.28    8.50
   2   6   2  179.48    8.60
   2   6   2  180.38    9.00
  -3  -6  -2   58.89    4.20
   3   6   2   57.09    3.70
   3   6   2   59.39    5.40
   3   6   2   52.19    3.70
   3   6   2   52.49    4.20
  -4  -6  -2   88.09    5.60
  -4  -6  -2   73.19    5.10
   4   6   2   93.59    6.70
   4   6   2   70.69    5.30
  -5  -6  -2  161.98    8.40
  -5  -6  -2  162.68    8.90
   5   6   2  141.99    8.70
   5   6   2  179.08   10.20
  -6  -6  -2    1.40    2.70
  -6  -6  -2    7.40    2.40
   6   6   2   10.50    2.70
   6   6   2    4.80    3.50
  -7  -6  -2    7.70    2.80
  -7  -6  -2    3.40    3.00
   7   6   2    2.50    4.50
   7   6   2   10.40    2.90
  -8  -6  -2    6.50    5.00
  -8  -6  -2    4.80    3.60
   8   6   2    5.80    3.00
   5  -7  -2    8.20    3.10
  -5   7   2    3.40    3.20
   4  -7  -2   23.10    3.80
  -4   7   2   18.70    3.50
   3  -7  -2   78.69    5.70
  -3   7   2   83.69    5.90
   2  -7  -2   55.89    6.90
   2  -7  -2   44.20    4.50
  -2   7   2   54.09    4.90
  -2   7   2   37.50    3.90
   1  -7  -2   23.90    3.00
   1  -7  -2   23.30    4.70
  -1   7   2   20.90    3.10
  -1   7   2   22.30    2.80
   0  -7  -2   10.70    2.10
   0  -7  -2   11.10    3.70
   0  -7  -2    9.50    2.20
   0   7   2   13.80    2.20
   0   7   2    7.90    2.00
  -1  -7  -2    6.70    2.00
  -1  -7  -2    6.30    1.70
   1   7   2   10.90    1.90
   1   7   2   10.50    2.10
  -2  -7  -2    5.10    1.50
  -2  -7  -2    6.80    2.00
   2   7   2    5.70    1.80
   2   7   2    9.90    3.10
   2   7   2    3.40    1.60
   2   7   2    8.50    1.90
  -3  -7  -2   54.89    4.50
   3   7   2   62.89    6.20
   3   7   2   57.49    4.50
   3   7   2   55.19    4.20
   3   7   2   57.29    4.20
  -4  -7  -2   28.60    3.50
   4   7   2   28.30    3.20
   4   7   2   27.70    3.20
   4   7   2   23.00    3.30
   4   7   2   37.40    5.10
  -5  -7  -2   65.89    5.10
  -5  -7  -2   60.79    5.80
   5   7   2   62.49    5.80
  -6  -7  -2   48.90    5.60
  -6  -7  -2   51.39    5.00
   6   7   2   49.40    5.60
   6   7   2   53.49    7.10
  -7  -7  -2    8.70    3.70
  -7  -7  -2    7.30    3.50
   7   7   2    5.60    5.70
   7   7   2    3.60    2.60
  -8  -7  -2   12.30    5.20
   8   7   2    3.00    2.90
   4  -8  -2    6.40    2.90
  -4   8   2    2.80    2.90
   3  -8  -2    1.90    2.60
  -3   8   2    4.90    2.60
   2  -8  -2    1.80    2.40
  -2   8   2    8.00    2.50
   1  -8  -2   -2.70    1.70
  -1   8   2    3.80    2.10
   0  -8  -2   32.70    3.50
   0   8   2   31.60    3.70
   0   8   2   28.80    3.30
  -1  -8  -2  134.59    8.00
  -1  -8  -2  163.08    7.80
   1   8   2  126.59    7.50
   1   8   2  152.38    7.50
  -2  -8  -2  222.58   10.70
  -2  -8  -2  224.28   11.10
   2   8   2  213.38   10.00
   2   8   2  210.98   10.00
   2   8   2  186.48   10.10
  -3  -8  -2   24.80    3.40
   3   8   2   24.90    3.40
   3   8   2   25.90    3.30
   3   8   2   32.10    3.60
  -4  -8  -2   20.50    3.20
   4   8   2   22.20    3.50
   4   8   2   24.10    3.30
   4   8   2   29.70    3.50
   4   8   2   30.40    5.30
  -5  -8  -2   30.30    4.40
   5   8   2   36.10    4.20
   5   8   2   35.90    4.20
   5   8   2   23.40    3.70
   5   8   2   28.60    5.80
  -6  -8  -2    1.60    3.20
  -6  -8  -2    5.90    4.30
   6   8   2    5.20    2.70
  -7  -8  -2    0.60    3.90
   7   8   2    2.40    2.60
  -8  -8  -2   15.00    6.10
   8   8   2   19.90    4.80
   3  -9  -2   53.99    6.20
  -3   9   2   41.30    5.10
   2  -9  -2   29.10    4.30
  -2   9   2   23.50    3.80
   1  -9  -2   23.60    3.70
  -1   9   2   32.00    4.10
   0  -9  -2   24.10    3.50
   0   9   2   17.60    3.10
  -1  -9  -2   20.70    3.10
  -1  -9  -2   22.40    3.80
   1   9   2   15.50    2.90
  -2  -9  -2    2.60    2.30
   2   9   2    0.90    1.90
   2   9   2    2.20    1.90
  -3  -9  -2   51.79    5.30
   3   9   2   50.39    4.80
   3   9   2   45.30    4.50
   3   9   2   45.90    4.80
  -4  -9  -2  105.99    7.50
   4   9   2   90.99    6.70
   4   9   2   91.69    6.60
   4   9   2   89.49    6.60
  -5  -9  -2    2.90    2.40
   5   9   2   -0.90    2.10
  -6  -9  -2   26.90    5.30
   6   9   2   24.30    4.30
  -7  -9  -2   29.70    6.20
   7   9   2   14.50    4.00
   2 -10  -2   19.10    4.50
  -2  10   2    8.20    3.30
   1 -10  -2   -1.00    2.90
  -1  10   2    4.60    2.80
   0 -10  -2   62.89    5.80
   0  10   2   51.89    5.10
  -1 -10  -2   18.80    3.60
   1  10   2   16.00    3.30
  -2 -10  -2   35.90    4.80
   2  10   2   38.50    4.60
  -3 -10  -2    7.90    3.20
  -4 -10  -2   12.40    3.60
   4  10   2    7.60    3.00
  -5 -10  -2   49.90    6.20
   5  10   2   53.09    6.10
  -6 -10  -2    6.00    4.60
   6  10   2    5.90    3.10
  -7 -10  -2   11.40    6.00
   7  10   2    4.00    3.40
   1 -11  -2   -0.20    3.90
  -1  11   2    0.70    3.30
   0 -11  -2   -0.70    3.30
   0  11   2    2.30    3.60
  -3 -11  -2    3.90    3.40
  -4 -11  -2   67.69    7.40
  -5 -11  -2   61.89    7.30
  -6 -11  -2   15.30    5.30
   6  11   2    7.30    5.50
  -3 -12  -2   42.20    6.80
  -4 -12  -2   20.00    5.10
   4  11  -3   38.40    6.50
   4  11  -3   41.50    6.50
   4  11  -3   28.30    9.50
  -4 -11   3   28.50    6.20
   3  11  -3   67.59    7.70
   3  11  -3   70.49    7.70
  -3 -11   3   79.89    8.30
   2  11  -3    2.40    3.80
  -2 -11   3    5.10    3.70
   1  11  -3   38.30    5.90
   0  11  -3   10.70    4.80
   5  10  -3    5.60    4.40
   5  10  -3   11.90    5.00
   5  10  -3    5.70    6.30
  -5 -10   3    2.90    3.70
   4  10  -3   29.50    5.50
   4  10  -3   28.60    5.40
   4  10  -3   18.70    6.50
  -4 -10   3   19.90    4.30
   3  10  -3   12.40    4.10
   3  10  -3    6.90    5.70
   3  10  -3   10.60    3.90
  -3 -10   3   10.10    3.60
   2  10  -3  104.29    8.60
  -2 -10   3   99.09    7.90
   1  10  -3   33.20    5.10
  -1 -10   3   44.00    5.70
   0  10  -3   99.89    7.90
  -1  10  -3    9.90    3.80
   1 -10   3   21.70    4.80
  -2  10  -3   14.70    4.90
   2 -10   3   14.80    4.60
   6   9  -3   30.20    5.80
   6   9  -3   24.70    6.60
   6   9  -3   33.60    6.00
  -6  -9   3   28.90    6.40
   5   9  -3   15.90    5.90
   5   9  -3   15.30    4.30
   5   9  -3   18.90    4.50
  -5  -9   3   15.60    4.80
   4   9  -3   19.70    4.60
   4   9  -3   18.20    5.60
   4   9  -3   16.30    4.20
  -4  -9   3   10.20    3.40
   3   9  -3  106.59    8.30
   3   9  -3  130.29   10.90
   3   9  -3  101.79    8.20
  -3  -9   3  114.29    8.10
   2   9  -3  110.39    9.90
   2   9  -3  114.29    8.00
   2   9  -3  117.19    8.10
  -2  -9   3  112.39    7.80
   1   9  -3  102.49    9.60
   1   9  -3  102.29    7.50
  -1  -9   3   92.29    7.00
   0   9  -3  119.99    8.10
   0  -9   3  143.09    8.70
  -1   9  -3    2.90    3.00
   1  -9   3    2.70    3.20
  -2   9  -3    7.10    3.40
   2  -9   3    2.20    3.30
  -3   9  -3   18.50    4.80
   3  -9   3   18.00    4.80
  -7  -8   3    3.80    5.10
  -7  -8   3    4.40    4.00
   6   8  -3   37.40    5.90
   6   8  -3   47.20    7.40
   6   8  -3   40.50    6.00
  -6  -8   3   35.80    5.90
   5   8  -3   56.09    6.30
   5   8  -3   49.99    6.80
   5   8  -3   56.19    6.10
  -5  -8   3   47.50    6.00
   4   8  -3    6.30    3.00
   4   8  -3    3.70    2.70
   4   8  -3    4.70    3.70
  -4  -8   3    2.00    2.90
   3   8  -3   50.19    6.50
   3   8  -3   51.69    5.30
   3   8  -3   49.20    5.30
  -3  -8   3   43.60    5.00
   2   8  -3   59.29    6.60
   2   8  -3   57.69    5.60
  -2  -8   3   51.39    5.20
   1   8  -3   98.79    8.40
   1   8  -3  104.99    7.00
  -1  -8   3  112.09    7.20
  -1  -8   3  112.79    6.90
   0   8  -3   74.39    5.90
   0   8  -3   74.99    7.70
   0  -8   3   70.69    5.80
   0  -8   3   85.29    5.90
  -1   8  -3   95.29    6.80
   1  -8   3   87.59    6.60
  -2   8  -3    3.80    2.70
   2  -8   3   10.30    3.20
  -3   8  -3    1.90    3.10
   3  -8   3    6.00    3.40
  -4   8  -3   24.40    4.70
   4  -8   3   20.50    4.90
   7   7  -3    5.90    3.30
   7   7  -3   14.00    5.80
  -7  -7   3    4.60    4.60
  -7  -7   3    3.00    3.30
   6   7  -3    6.50    2.90
   6   7  -3    8.90    4.50
  -6  -7   3    1.70    3.60
  -6  -7   3    3.60    2.80
   5   7  -3   76.29    7.40
   5   7  -3   78.69    6.50
   5   7  -3   85.49    7.20
   5   7  -3   81.49    7.10
  -5  -7   3   75.59    7.10
   4   7  -3  256.77   13.60
   4   7  -3  254.47   12.70
   4   7  -3  243.28   12.50
  -4  -7   3  236.88   12.40
   3   7  -3   18.20    3.20
   3   7  -3   24.50    4.00
   3   7  -3   20.30    3.40
  -3  -7   3   21.50    3.30
   2   7  -3   64.39    6.30
   2   7  -3   66.09    5.60
   2   7  -3   63.99    5.60
  -2  -7   3   68.09    5.30
   1   7  -3  118.69    8.20
   1   7  -3  119.79    7.10
   1   7  -3  114.29    7.00
  -1  -7   3  132.49    7.00
  -1  -7   3  128.49    7.40
   0   7  -3   35.30    4.70
   0   7  -3   42.40    4.30
   0  -7   3   41.40    4.10
   0  -7   3   38.30    3.80
  -1   7  -3   22.90    3.20
   1  -7   3   29.40    3.70
   1  -7   3   32.20    3.90
  -2   7  -3   77.89    5.90
   2  -7   3   66.59    5.60
  -3   7  -3   20.50    3.50
   3  -7   3   28.40    4.20
  -4   7  -3    9.90    2.90
   4  -7   3    8.00    3.10
  -5   7  -3    4.80    3.30
   5  -7   3    5.80    3.30
   8   6  -3    6.90    3.80
   8   6  -3    7.50    6.20
  -8  -6   3    8.10    4.20
   7   6  -3    9.00    3.30
   7   6  -3   13.50    4.80
  -7  -6   3    9.00    4.20
  -7  -6   3    1.80    2.60
   6   6  -3   12.30    4.20
   6   6  -3    9.40    2.90
  -6  -6   3   12.80    3.20
  -6  -6   3   19.80    4.20
   5   6  -3   47.90    5.60
   5   6  -3   45.50    4.70
  -5  -6   3   54.19    5.60
  -5  -6   3   49.00    5.10
   4   6  -3   38.40    4.00
   4   6  -3   41.40    4.60
   4   6  -3   35.90    4.60
   4   6  -3   41.00    4.30
  -4  -6   3   34.60    4.20
   3   6  -3  152.68    8.20
   3   6  -3  144.59    8.70
   3   6  -3  164.28    8.20
   3   6  -3  153.58    8.30
  -3  -6   3  153.28    8.50
   2   6  -3  150.78    8.00
   2   6  -3  144.39    8.00
   2   6  -3  151.08    8.70
  -2  -6   3  158.78    8.60
   1   6  -3  322.77   15.60
   1   6  -3  377.16   16.70
   1   6  -3  359.06   15.80
  -1  -6   3  413.16   17.30
  -1  -6   3  400.56   18.00
   0   6  -3   91.79    6.50
   0   6  -3   80.99    5.30
   0  -6   3   84.29    5.00
   0  -6   3   82.69    5.30
  -1   6  -3  126.89    8.20
  -1   6  -3  121.29    6.90
   1  -6   3  132.19    6.90
   1  -6   3  119.99    6.90
  -2   6  -3   24.80    3.20
   2  -6   3   29.40    3.50
  -3   6  -3    8.30    2.20
   3  -6   3   11.90    2.70
  -4   6  -3   15.70    3.00
   4  -6   3   12.80    2.90
  -5   6  -3    5.30    2.30
   5  -6   3    6.70    2.90
   8   5  -3    6.50    3.50
   8   5  -3   -1.80    5.00
  -8  -5   3    3.50    3.30
   7   5  -3   -1.60    2.10
   7   5  -3   -2.80    3.70
  -7  -5   3    7.20    3.10
   6   5  -3   30.20    4.40
   6   5  -3   23.00    4.30
  -6  -5   3   28.00    4.40
  -6  -5   3   26.50    4.10
   5   5  -3   62.09    5.70
   5   5  -3   59.99    5.00
  -5  -5   3   67.99    6.00
  -5  -5   3   64.59    5.70
   4   5  -3  362.66   16.80
   4   5  -3  378.26   16.50
  -4  -5   3  368.26   16.70
  -4  -5   3  381.66   17.10
   3   5  -3  212.78   10.60
   3   5  -3  228.78   10.40
   3   5  -3  223.08   11.00
   3   5  -3  227.08   10.80
  -3  -5   3  225.08   11.00
   2   5  -3  183.18    9.30
   2   5  -3  210.78    8.90
   2   5  -3  190.68    9.30
   2   5  -3  186.68    9.70
  -2  -5   3  213.28   10.30
  -2  -5   3  213.68    9.20
   1   5  -3  121.39    7.20
   1   5  -3  132.09    6.80
   1   5  -3  134.89    6.90
  -1  -5   3  151.48    7.00
  -1  -5   3  140.09    7.60
   0   5  -3  150.28    7.50
   0   5  -3  143.99    8.20
   0  -5   3  177.58    8.50
   0  -5   3  164.68    8.10
  -1   5  -3   21.50    2.70
  -1   5  -3   30.50    3.70
   1  -5   3   35.40    3.20
   1  -5   3   24.60    2.70
  -2   5  -3  172.98    8.70
  -2   5  -3  187.38   10.20
   2  -5   3  165.08    7.70
   2  -5   3  145.39    8.00
  -3   5  -3   73.79    4.90
   3  -5   3   69.99    5.00
  -4   5  -3   39.40    4.10
   4  -5   3   31.80    3.80
  -5   5  -3    0.00    1.80
   5  -5   3    4.10    2.50
  -6   5  -3    6.90    2.70
   6  -5   3    2.70    3.00
   8   4  -3   28.10    5.10
   8   4  -3   25.80    6.60
  -8  -4   3   27.60    4.80
   7   4  -3    5.90    4.00
   7   4  -3    6.00    2.80
  -7  -4   3    7.40    2.80
   6   4  -3   15.00    3.50
   6   4  -3    9.90    2.70
  -6  -4   3   23.30    3.80
  -6  -4   3   12.70    2.90
   5   4  -3   17.70    3.00
   5   4  -3   15.90    2.80
  -5  -4   3   19.90    3.00
  -5  -4   3   19.00    3.20
   4   4  -3   77.39    5.10
   4   4  -3   72.39    5.10
  -4  -4   3   80.89    5.40
  -4  -4   3   83.99    5.60
   3   4  -3  473.55   20.20
   3   4  -3  480.55   20.10
  -3  -4   3  420.96   18.80
  -3  -4   3  449.26   18.70
   2   4  -3  841.02   35.50
   2   4  -3  878.81   35.50
   2   4  -3  906.91   35.10
   2   4  -3  872.51   35.50
  -2  -4   3  917.81   37.60
  -2  -4   3  932.01   36.60
   1   4  -3  109.29    6.20
   1   4  -3  118.29    5.20
   1   4  -3  111.39    5.90
   1   4  -3  109.49    5.80
  -1  -4   3  114.79    6.20
  -1  -4   3  123.19    5.60
   0   4  -3  188.08    8.50
   0   4  -3  175.68    8.40
   0   4  -3  174.28    8.90
   0  -4   3  187.28    8.70
   0  -4   3  187.18    8.50
  -1   4  -3   77.09    5.00
  -1   4  -3   66.99    4.20
   1  -4   3   71.39    4.10
   1  -4   3   67.09    4.20
  -2   4  -3   48.70    4.60
  -2   4  -3   56.99    3.70
   2  -4   3   52.29    3.30
   2  -4   3   40.80    3.60
  -3   4  -3   18.70    2.40
   3  -4   3   19.00    2.60
  -4   4  -3    1.00    1.40
   4  -4   3    0.00    1.50
  -5   4  -3    6.00    2.10
   5  -4   3    9.10    2.50
  -6   4  -3   10.70    2.80
   6  -4   3   10.40    3.20
   8   3  -3   -2.10    5.00
   8   3  -3    0.30    2.80
  -8  -3   3    1.80    2.80
   7   3  -3    5.20    3.50
   7   3  -3    1.30    2.10
  -7  -3   3    1.50    2.30
   6   3  -3   34.10    4.20
   6   3  -3   18.80    3.60
  -6  -3   3   29.60    3.90
   5   3  -3  131.19    7.50
   5   3  -3  132.49    7.50
  -5  -3   3  160.48    8.30
  -5  -3   3  142.19    7.90
   4   3  -3    7.50    1.80
   4   3  -3    6.40    1.70
  -4  -3   3    8.00    2.00
  -4  -3   3   12.10    2.30
   3   3  -3  295.47   13.00
   3   3  -3  315.97   13.40
  -3  -3   3  331.37   14.20
  -3  -3   3  316.07   14.20
   2   3  -3  217.68    8.90
   2   3  -3  183.98    8.80
  -2  -3   3  231.68    9.20
  -2  -3   3  217.38    9.90
  -2  -3   3  208.88   10.00
   1   3  -3  307.77   13.50
   1   3  -3  313.97   13.50
   1   3  -3  294.37   13.40
   1   3  -3  343.77   12.90
  -1  -3   3  361.06   15.40
  -1  -3   3  364.56   14.80
   0   3  -3  163.38    7.70
   0   3  -3  164.58    7.40
   0   3  -3  148.69    7.30
   0  -3   3  167.78    7.80
   0  -3   3  167.18    7.50
  -1   3  -3  123.99    6.60
  -1   3  -3  125.09    6.10
   1  -3   3  131.09    6.10
   1  -3   3  121.79    6.10
  -2   3  -3  114.29    5.70
  -2   3  -3  113.59    6.50
   2  -3   3  111.99    5.30
   2  -3   3  109.99    5.90
   2  -3   3  118.09    5.60
   2  -3   3  127.99    7.30
  -3   3  -3  108.89    5.30
  -3   3  -3  111.79    7.10
  -3   3  -3  113.89    5.90
   3  -3   3   97.59    5.40
   3  -3   3  113.09    5.90
  -4   3  -3   46.10    4.00
   4  -3   3   51.29    4.30
  -5   3  -3   44.50    4.10
   5  -3   3   53.49    4.80
  -6   3  -3    3.30    2.00
   6  -3   3    3.40    2.30
  -7   3  -3    3.80    2.40
   7  -3   3    3.40    4.10
   8   2  -3    0.40    5.20
   8   2  -3    2.20    2.80
  -8  -2   3    3.80    3.10
   7   2  -3   24.70    4.90
   7   2  -3   31.70    4.60
  -7  -2   3   29.10    4.20
   6   2  -3   70.79    5.60
   6   2  -3   76.69    6.40
  -6  -2   3   84.49    5.90
   5   2  -3   23.00    3.10
   5   2  -3   20.90    3.00
  -5  -2   3   26.70    3.20
  -5  -2   3   21.10    2.90
   4   2  -3   69.19    4.70
   4   2  -3   83.69    4.70
  -4  -2   3   90.29    5.30
  -4  -2   3   90.49    5.20
   3   2  -3   66.79    4.00
   3   2  -3   80.69    4.50
   3   2  -3   76.19    4.00
   3   2  -3   75.89    3.50
  -3  -2   3   77.99    4.60
  -3  -2   3   80.49    4.60
   2   2  -3  452.65   18.00
   2   2  -3  419.66   17.50
  -2  -2   3  434.76   18.10
  -2  -2   3  414.26   18.00
  -2  -2   3  453.85   17.40
   1   2  -3  202.68    9.20
   1   2  -3  203.68    9.20
   1   2  -3  237.38    8.90
   1   2  -3  206.68    9.00
  -1  -2   3  227.18   10.10
  -1  -2   3  229.78   10.10
  -1  -2   3  237.08    9.60
   0   2  -3 1008.60   39.50
   0   2  -3  975.00   39.40
   0   2  -3  993.70   39.40
   0  -2   3 1097.79   42.90
   0  -2   3 1064.69   42.70
  -1   2  -3  240.98   10.30
  -1   2  -3  239.18   10.60
   1  -2   3  266.97   10.90
   1  -2   3  245.98   11.00
  -2   2  -3    0.70    1.10
  -2   2  -3    0.40    1.40
  -2   2  -3    1.70    0.90
   2  -2   3    1.40    0.80
   2  -2   3    0.10    0.90
   2  -2   3    1.40    1.70
  -3   2  -3   41.20    3.90
  -3   2  -3   34.90    2.50
  -3   2  -3   41.90    2.90
   3  -2   3   32.40    2.60
   3  -2   3   36.30    3.90
   3  -2   3   35.60    3.10
  -4   2  -3   17.70    2.40
   4  -2   3   19.60    2.50
   4  -2   3   22.00    2.70
   4  -2   3   23.80    4.30
  -5   2  -3   24.50    2.90
   5  -2   3   33.40    3.70
   5  -2   3   27.70    3.20
  -6   2  -3    8.80    2.20
   6  -2   3   11.30    2.50
  -7   2  -3    8.30    2.60
   8   1  -3   -1.00    3.30
   8   1  -3    0.90    4.80
  -8  -1   3    3.10    3.00
   7   1  -3   28.00    4.60
   7   1  -3   23.10    4.90
  -7  -1   3   24.90    4.00
   6   1  -3   16.90    2.90
   6   1  -3   16.10    3.50
  -6  -1   3   20.40    3.40
   5   1  -3   90.39    5.90
   5   1  -3   87.99    5.80
  -5  -1   3  100.69    6.10
   4   1  -3    1.00    1.10
   4   1  -3    1.80    1.30
   4   1  -3    0.40    1.20
  -4  -1   3   -0.30    1.20
  -4  -1   3    0.00    1.20
   3   1  -3   96.99    5.50
   3   1  -3  108.09    4.70
   3   1  -3   99.99    4.90
   3   1  -3  103.09    5.00
  -3  -1   3  120.49    5.80
  -3  -1   3  113.89    5.90
  -2  -1   3  723.03   28.10
  -2  -1   3  690.63   28.50
  -2  -1   3  731.13   28.60
  -2  -1   3  701.33   28.70
  -1  -1   3  690.13   26.30
  -1  -1   3  646.94   26.50
  -1  -1   3  683.13   26.40
  -1  -1   3  629.84   26.40
   0   1  -3  684.73   27.20
   0   1  -3  702.93   27.20
   0   1  -3  664.03   27.10
   0  -1   3  758.32   29.50
   0  -1   3  725.13   29.40
  -1   1  -3   53.69    2.90
  -1   1  -3   59.69    3.30
   1  -1   3   54.39    3.00
   1  -1   3   59.89    3.00
  -2   1  -3  591.84   23.50
  -2   1  -3  570.44   22.90
  -2   1  -3  551.54   22.80
   2  -1   3  598.84   24.20
   2  -1   3  591.14   24.80
   2  -1   3  604.44   23.90
  -3   1  -3  290.77   13.00
  -3   1  -3  280.97   11.90
  -3   1  -3  286.17   12.10
   3  -1   3  289.77   13.40
   3  -1   3  295.07   12.50
   3  -1   3  280.87   12.40
  -4   1  -3   36.30    3.10
  -4   1  -3   36.90    2.90
   4  -1   3   38.40    3.40
   4  -1   3   35.00    3.20
   4  -1   3   36.90    4.20
  -5   1  -3    1.80    1.30
   5  -1   3    3.60    2.00
   5  -1   3    4.70    1.60
   5  -1   3    7.80    3.70
  -6   1  -3    5.40    1.80
   6  -1   3   13.80    3.20
   6  -1   3   12.70    2.50
  -7   1  -3   15.30    3.00
   7  -1   3   21.70    4.50
  -8   1  -3   14.10    3.40
   8   0  -3    1.40    5.40
   8   0  -3    0.80    3.60
  -8   0   3    2.20    4.20
   7   0  -3    2.80    3.90
   7   0  -3    3.20    2.80
  -7   0   3   -0.10    2.90
   6   0  -3   22.30    3.90
   6   0  -3   18.90    3.80
  -6   0   3   15.20    3.20
   5   0  -3   57.39    5.10
   5   0  -3   54.49    4.50
  -5   0   3   58.99    4.60
   4   0  -3  843.52   33.40
   4   0  -3  806.12   34.00
   4   0  -3  851.61   34.40
  -4   0   3  938.11   38.00
   3   0  -3  190.38    7.70
   3   0  -3  165.38    7.70
   3   0  -3  172.58    8.00
  -3   0   3  198.08    9.00
  -3   0   3  210.28    8.70
  -3   0   3  188.98    9.40
   2   0  -3    0.70    0.50
   2   0  -3    1.90    0.60
   2   0  -3    0.10    0.60
  -2   0   3    0.20    0.90
  -2   0   3    1.30    0.90
  -2   0   3    0.60    0.80
  -1   0   3  103.39    4.80
  -1   0   3   96.89    4.60
  -1   0   3  104.49    4.50
  -1   0   3   98.99    4.50
   0   0  -3  379.86   15.00
   0   0   3  420.96   16.60
   0   0   3  407.46   16.60
   0   0   3  409.96   16.70
  -1   0  -3  560.34   22.40
  -1   0  -3  557.34   22.20
  -1   0  -3  570.74   22.60
   1   0   3  631.74   24.80
   1   0   3  609.64   24.70
  -2   0  -3  108.09    4.90
  -2   0  -3  106.99    4.90
  -2   0  -3  112.09    5.50
   2   0   3  105.09    5.00
   2   0   3  108.99    5.00
  -3   0  -3   30.10    3.00
  -3   0  -3   26.10    2.00
  -3   0  -3   26.10    2.20
   3   0   3   22.10    2.10
   3   0   3   25.20    2.40
   3   0   3   26.30    3.00
  -4   0  -3   -1.00    0.90
  -4   0  -3   -1.30    1.00
   4   0   3    0.20    1.20
   4   0   3   -1.50    1.60
   4   0   3    0.30    0.90
  -5   0  -3    0.30    2.00
  -5   0  -3    1.80    1.40
   5   0   3    2.10    1.70
   5   0   3    3.90    2.80
   5   0   3    1.50    1.40
  -6   0  -3    3.40    1.50
   6   0   3    3.20    2.30
  -7   0  -3    0.90    1.90
   7   0   3    0.40    2.70
  -8   0  -3   51.69    5.50
   8   0   3   50.89    6.70
  -8   1   3    3.90    5.20
   7  -1  -3    5.50    4.50
   7  -1  -3    6.90    3.10
  -7   1   3    6.70    3.50
   6  -1  -3   11.90    3.70
   6  -1  -3   10.40    2.90
  -6   1   3   10.00    2.90
   5  -1  -3    9.00    2.70
   5  -1  -3   11.60    2.20
   5  -1  -3   10.50    2.50
  -5   1   3   11.50    2.40
   4  -1  -3   78.29    4.30
   4  -1  -3   67.39    4.90
  -4   1   3   74.39    4.60
  -4   1   3   72.89    5.00
   3  -1  -3  140.29    6.10
   3  -1  -3  118.29    6.40
  -3   1   3  124.99    6.10
  -3   1   3  126.19    5.60
  -3   1   3  124.79    6.50
   2  -1  -3  279.27   11.70
   2  -1  -3  274.37   11.80
   2  -1  -3  294.57   12.30
  -2   1   3  301.77   12.40
  -2   1   3  291.27   12.80
   1  -1  -3  217.28    8.60
   1  -1  -3  211.28    8.60
  -1   1   3  238.18    9.80
  -1   1   3  234.08    9.60
  -1   1   3  239.38   10.10
  -1   1   3  231.78    9.70
   0  -1  -3  988.80   38.80
   0  -1  -3  992.20   38.70
   0   1   3 1077.09   42.50
   0   1   3 1085.29   42.60
  -1  -1  -3   12.00    1.20
  -1  -1  -3   12.70    1.30
   1   1   3   12.50    1.30
   1   1   3   12.50    1.20
  -2  -1  -3  424.36   16.30
  -2  -1  -3  397.36   16.50
  -2  -1  -3  400.46   16.90
   2   1   3  390.76   16.50
   2   1   3  410.96   16.30
  -3  -1  -3  666.63   26.10
  -3  -1  -3  670.63   26.80
  -3  -1  -3  621.94   26.20
   3   1   3  612.24   26.60
   3   1   3  636.54   26.10
   3   1   3  668.33   25.70
  -4  -1  -3  185.98    8.60
  -4  -1  -3  196.38    9.80
  -4  -1  -3  195.08    8.70
   4   1   3  186.58    8.10
   4   1   3  189.38    8.80
   4   1   3  155.88    9.10
  -5  -1  -3   60.49    4.10
  -5  -1  -3   55.89    3.80
   5   1   3   57.89    3.90
   5   1   3   72.49    5.90
   5   1   3   57.59    4.70
  -6  -1  -3   46.70    4.20
   6   1   3   64.99    6.90
   6   1   3   59.39    5.60
  -7  -1  -3   19.60    3.20
   7   1   3   14.60    3.70
  -8  -1  -3   18.30    3.60
   8   1   3   12.90    4.00
   7  -2  -3   -0.60    2.80
   7  -2  -3    2.80    4.90
  -7   2   3    4.90    3.30
   6  -2  -3    2.60    3.50
   6  -2  -3    0.50    2.20
  -6   2   3    3.60    2.50
   5  -2  -3  120.99    7.80
   5  -2  -3  138.99    7.20
   5  -2  -3  135.99    8.50
  -5   2   3  135.99    7.60
  -5   2   3  138.49    8.10
   4  -2  -3  226.18   10.10
   4  -2  -3  210.78   10.90
  -4   2   3  227.48   10.60
  -4   2   3  230.08   11.30
   3  -2  -3   12.70    2.30
   3  -2  -3   11.60    1.60
  -3   2   3   15.10    2.00
  -3   2   3   16.00    2.30
   2  -2  -3  866.71   35.40
   2  -2  -3  894.51   35.10
  -2   2   3  887.11   35.10
  -2   2   3  880.31   35.80
   1  -2  -3  853.31   34.30
   1  -2  -3  870.31   34.20
  -1   2   3  914.61   37.10
  -1   2   3  936.91   36.50
   0  -2  -3  407.86   17.40
   0  -2  -3  453.15   17.20
   0   2   3  452.75   18.30
   0   2   3  455.05   18.50
  -1  -2  -3  357.26   14.40
  -1  -2  -3  351.66   14.60
   1   2   3  371.06   15.20
   1   2   3  363.66   14.80
  -2  -2  -3  386.16   16.10
  -2  -2  -3  384.46   15.40
   2   2   3  351.26   15.80
   2   2   3  382.26   15.20
   2   2   3  388.96   15.70
  -3  -2  -3  730.33   30.90
  -3  -2  -3  786.02   30.70
  -3  -2  -3  799.52   31.50
   3   2   3  678.83   30.10
   3   2   3  747.23   29.80
   3   2   3  766.32   29.10
  -4  -2  -3  192.08    8.40
  -4  -2  -3  198.58    9.70
  -4  -2  -3  176.08    8.50
   4   2   3  167.68    8.60
   4   2   3  179.18    9.30
   4   2   3  187.28    7.90
  -5  -2  -3  147.49    7.40
  -5  -2  -3  139.69    7.10
   5   2   3  128.29    7.20
   5   2   3  132.99    8.20
  -6  -2  -3   31.60    3.60
  -6  -2  -3   23.70    3.00
   6   2   3   28.20    4.60
   6   2   3   27.70    3.80
  -7  -2  -3    3.10    2.20
   7   2   3    8.10    2.90
  -8  -2  -3   29.10    4.20
   8   2   3   12.60    3.90
   7  -3  -3    9.40    4.10
   7  -3  -3   11.50    6.10
  -7   3   3    5.20    3.80
   6  -3  -3   22.30    4.20
   6  -3  -3   23.60    3.80
   6  -3  -3   18.20    5.00
  -6   3   3   17.20    3.50
   5  -3  -3   16.60    2.70
   5  -3  -3    8.30    3.70
  -5   3   3   14.50    2.80
  -5   3   3    9.60    2.60
   4  -3  -3   49.30    4.10
   4  -3  -3   50.29    5.40
  -4   3   3   45.80    4.30
  -4   3   3   46.70    4.10
   3  -3  -3   41.80    3.10
   3  -3  -3   40.10    4.10
  -3   3   3   47.10    3.70
  -3   3   3   46.20    3.40
   2  -3  -3   85.89    5.20
   2  -3  -3   85.79    4.60
  -2   3   3   93.19    4.60
  -2   3   3   86.89    5.20
   1  -3  -3  157.08    6.70
   1  -3  -3  137.09    7.10
  -1   3   3  165.38    7.90
  -1   3   3  168.28    7.20
   0  -3  -3 1363.16   52.09
   0  -3  -3 1293.97   52.79
   0   3   3 1323.07   53.79
   0   3   3 1393.36   53.19
  -1  -3  -3  118.59    5.90
  -1  -3  -3  119.29    5.40
   1   3   3  113.39    4.90
   1   3   3  100.69    5.30
  -2  -3  -3   34.50    2.20
  -2  -3  -3   38.80    2.50
  -2  -3  -3   43.40    3.20
   2   3   3   40.70    2.90
   2   3   3   39.60    3.50
   2   3   3   41.70    2.30
  -3  -3  -3  437.56   17.50
  -3  -3  -3  415.76   17.90
  -3  -3  -3  438.76   18.50
   3   3   3  425.66   18.60
   3   3   3  414.56   18.30
   3   3   3  447.26   17.40
  -4  -3  -3  346.47   15.20
  -4  -3  -3  359.26   14.80
   4   3   3  325.37   14.80
   4   3   3  316.17   15.20
   4   3   3  353.66   13.80
  -5  -3  -3   29.30    3.20
  -5  -3  -3   27.20    2.90
   5   3   3   27.90    4.10
   5   3   3   25.40    3.30
  -6  -3  -3   78.69    5.20
  -6  -3  -3   78.39    5.60
   6   3   3   94.69    7.50
   6   3   3   73.19    6.00
  -7  -3  -3    3.50    2.10
   7   3   3    3.50    2.70
  -8  -3  -3   46.00    5.10
   8   3   3   36.30    5.50
   7  -4  -3   -0.50    6.50
   7  -4  -3    2.00    3.80
  -7   4   3   -2.00    4.10
   6  -4  -3    9.20    3.30
   6  -4  -3    0.80    4.70
   6  -4  -3    4.40    2.60
  -6   4   3    2.00    2.90
   5  -4  -3   18.40    3.00
   5  -4  -3   15.30    4.50
  -5   4   3   13.50    2.90
  -5   4   3   11.70    2.70
   4  -4  -3   47.60    4.30
   4  -4  -3   56.09    6.10
  -4   4   3   50.19    4.40
  -4   4   3   47.80    4.80
   3  -4  -3   23.90    3.60
   3  -4  -3   25.60    2.70
  -3   4   3   28.10    3.00
  -3   4   3   35.20    3.70
   2  -4  -3   36.10    3.80
   2  -4  -3   32.30    2.90
  -2   4   3   34.50    3.50
  -2   4   3   34.10    2.70
   1  -4  -3   81.39    4.60
   1  -4  -3   81.99    5.30
   1  -4  -3   90.49    4.10
  -1   4   3   82.99    4.10
  -1   4   3   78.79    4.70
   0  -4  -3  342.27   13.80
   0  -4  -3  353.76   14.80
   0  -4  -3  313.97   14.00
   0   4   3  344.27   13.50
   0   4   3  314.17   14.20
  -1  -4  -3  605.44   24.10
  -1  -4  -3  613.84   25.00
  -1  -4  -3  579.04   24.10
   1   4   3  537.65   21.10
   1   4   3  514.85   21.80
  -2  -4  -3  243.58   11.10
  -2  -4  -3  236.38   10.40
   2   4   3  205.98    8.90
   2   4   3  206.28    9.70
   2   4   3  233.28   10.40
   2   4   3  205.48    8.90
  -3  -4  -3   43.00    3.00
  -3  -4  -3   53.89    3.50
  -3  -4  -3   56.89    4.40
   3   4   3   42.90    4.10
   3   4   3   55.89    2.80
   3   4   3   52.79    3.70
  -4  -4  -3   72.69    4.70
  -4  -4  -3   76.99    4.30
   4   4   3   86.79    5.80
   4   4   3   70.09    5.00
  -5  -4  -3    7.30    1.80
  -5  -4  -3    6.50    2.00
   5   4   3    5.80    2.50
   5   4   3    4.90    1.90
  -6  -4  -3   68.99    5.60
  -6  -4  -3   58.79    4.40
   6   4   3   68.79    6.70
   6   4   3   57.29    5.70
  -7  -4  -3   54.39    5.50
  -7  -4  -3   39.90    4.40
   7   4   3   33.80    4.70
  -8  -4  -3    8.90    3.20
   8   4   3    7.70    3.70
   6  -5  -3    4.10    3.00
   6  -5  -3    1.20    5.20
   6  -5  -3    7.30    3.80
  -6   5   3    7.00    3.50
   5  -5  -3    2.50    2.10
   5  -5  -3   10.00    4.90
  -5   5   3    7.80    2.80
  -5   5   3    5.90    2.60
   4  -5  -3   65.19    5.00
   4  -5  -3   79.89    7.60
  -4   5   3   80.89    5.70
  -4   5   3   69.69    5.30
   3  -5  -3   36.30    5.00
   3  -5  -3   28.90    3.20
  -3   5   3   31.80    3.40
  -3   5   3   41.00    4.20
   2  -5  -3    9.00    2.70
   2  -5  -3   11.70    2.00
  -2   5   3    9.60    1.80
  -2   5   3   10.50    2.10
   1  -5  -3    5.60    2.20
   1  -5  -3    5.80    1.40
  -1   5   3    5.70    1.40
  -1   5   3    3.50    1.40
   0  -5  -3  140.39    7.70
   0  -5  -3  136.89    6.60
   0  -5  -3  141.99    6.50
   0   5   3  146.89    6.50
   0   5   3  136.29    7.10
  -1  -5  -3  677.83   29.00
  -1  -5  -3  695.33   28.00
  -1  -5  -3  713.43   28.20
   1   5   3  694.23   27.10
   1   5   3  630.34   25.60
   1   5   3  593.94   26.30
  -2  -5  -3 1094.89   44.60
  -2  -5  -3 1103.39   45.40
  -2  -5  -3 1143.49   44.10
   2   5   3  944.11   40.30
   2   5   3 1077.49   41.00
   2   5   3  982.30   39.50
   2   5   3  984.70   39.50
  -3  -5  -3  107.79    6.00
  -3  -5  -3  129.39    7.40
  -3  -5  -3  129.39    5.50
  -3  -5  -3  125.79    6.50
   3   5   3   96.79    5.70
  -4  -5  -3  126.49    6.90
  -4  -5  -3  121.79    6.30
   4   5   3  100.99    6.50
   4   5   3  137.19    7.80
  -5  -5  -3   41.60    4.20
  -5  -5  -3   43.10    3.80
   5   5   3   40.30    4.90
   5   5   3   36.90    4.10
  -6  -5  -3   90.89    6.40
  -6  -5  -3   79.89    5.50
   6   5   3   88.49    8.20
   6   5   3   82.19    6.50
  -7  -5  -3    7.50    2.70
  -7  -5  -3   11.50    3.70
   7   5   3    4.50    3.00
   8   5   3   27.30    4.90
   6  -6  -3    8.00    3.70
  -6   6   3   12.40    4.40
   5  -6  -3    3.80    5.30
   5  -6  -3    6.30    2.60
  -5   6   3    9.60    3.40
  -5   6   3    6.50    3.00
   4  -6  -3   71.59    6.00
   4  -6  -3   82.39    8.40
  -4   6   3   72.99    5.90
  -4   6   3   91.19    6.50
   3  -6  -3  148.69    8.00
   3  -6  -3  143.49   10.20
  -3   6   3  160.68    8.40
  -3   6   3  157.68    9.00
   2  -6  -3   36.70    3.60
   2  -6  -3   52.09    5.80
  -2   6   3   44.90    4.30
  -2   6   3   49.90    3.70
   1  -6  -3   38.50    4.90
   1  -6  -3   31.80    3.10
  -1   6   3   38.60    3.20
  -1   6   3   31.30    3.60
   0  -6  -3   90.29    5.00
   0  -6  -3   97.59    6.60
   0  -6  -3   85.39    4.80
   0   6   3   79.19    5.00
   0   6   3   78.99    4.30
  -1  -6  -3  303.87   13.30
  -1  -6  -3  308.47   14.60
  -1  -6  -3  304.77   13.10
   1   6   3  286.17   12.10
   1   6   3  270.67   12.70
  -2  -6  -3  237.08   11.70
  -2  -6  -3  228.58   10.60
  -2  -6  -3  227.78   10.00
   2   6   3  180.18    8.60
   2   6   3  196.68    8.70
   2   6   3  184.08    9.30
   2   6   3  212.28   10.50
  -3  -6  -3   89.19    5.40
   3   6   3   71.59    5.10
   3   6   3   74.89    4.40
   3   6   3   80.69    4.50
   3   6   3   94.59    6.60
  -4  -6  -3    5.90    1.90
  -4  -6  -3    4.30    2.00
   4   6   3    2.00    2.60
   4   6   3    1.70    1.50
  -5  -6  -3  180.88    9.20
  -5  -6  -3  193.88   10.00
   5   6   3  156.28    9.40
   5   6   3  208.58   11.30
  -6  -6  -3  125.79    8.30
  -6  -6  -3  121.59    7.60
   6   6   3  121.29    9.60
   6   6   3  114.49    7.80
  -7  -6  -3   28.10    4.70
   7   6   3   37.40    5.20
  -8  -6  -3   30.20    5.80
   8   6   3   27.00    5.50
   5  -7  -3   11.80    3.50
  -5   7   3    4.00    3.50
   4  -7  -3   23.90    3.80
   4  -7  -3   24.50    7.50
  -4   7   3   17.90    4.30
  -4   7   3   20.40    3.50
   3  -7  -3   43.90    6.80
   3  -7  -3   44.10    4.60
  -3   7   3   37.30    4.60
  -3   7   3   36.10    4.00
   2  -7  -3   39.30    6.00
   2  -7  -3   29.20    3.60
  -2   7   3   19.80    3.10
  -2   7   3   23.10    3.10
   1  -7  -3   75.89    7.20
   1  -7  -3   67.69    4.80
  -1   7   3   74.09    5.40
  -1   7   3   74.09    4.70
   0  -7  -3   62.99    6.10
   0  -7  -3   63.69    4.40
   0   7   3   58.59    4.50
   0   7   3   63.99    4.10
  -1  -7  -3  171.48   10.10
  -1  -7  -3  176.18    8.60
  -1  -7  -3  179.08    8.40
   1   7   3  155.38    8.50
   1   7   3  176.58    8.00
  -2  -7  -3  262.57   12.30
  -2  -7  -3  265.47   11.50
   2   7   3  222.18   11.40
   2   7   3  236.38   10.70
   2   7   3  249.68   10.80
  -3  -7  -3  109.59    6.50
   3   7   3  102.59    8.60
   3   7   3   91.39    5.30
   3   7   3   83.89    5.90
   3   7   3   94.69    5.40
  -4  -7  -3   96.69    6.20
   4   7   3  109.09    8.40
   4   7   3   90.79    5.50
   4   7   3   85.89    5.40
   4   7   3   81.29    5.90
  -5  -7  -3   33.10    4.30
  -5  -7  -3   41.80    4.90
   5   7   3   35.20    4.50
  -6  -7  -3   16.10    3.70
   6   7   3   10.40    2.90
  -7  -7  -3    2.20    3.50
   7   7   3    4.40    2.60
  -8  -7  -3   14.70    5.30
   8   7   3    9.00    3.50
   4  -8  -3   31.10    4.50
  -4   8   3   19.10    3.90
   3  -8  -3   11.90    3.30
  -3   8   3   11.60    3.10
   2  -8  -3    7.90    2.80
  -2   8   3    4.00    2.70
  -2   8   3   11.90    2.60
   1  -8  -3   66.39    5.50
  -1   8   3   68.59    5.10
  -1   8   3   77.59    5.60
   0  -8  -3    9.70    2.30
   0   8   3   11.70    2.60
   0   8   3   15.70    2.50
  -1  -8  -3    5.70    2.20
  -1  -8  -3    9.20    2.10
   1   8   3   10.00    2.00
   1   8   3   10.30    2.40
  -2  -8  -3   57.39    4.60
  -2  -8  -3   56.09    4.20
   2   8   3   53.79    4.00
   2   8   3   49.10    4.80
  -3  -8  -3   19.60    3.10
   3   8   3   20.60    3.00
   3   8   3   20.50    2.90
   3   8   3   23.10    3.20
  -4  -8  -3   -0.50    1.60
   4   8   3    0.30    1.80
  -5  -8  -3   28.90    4.00
   5   8   3   22.30    3.60
  -6  -8  -3   28.00    4.80
   6   8   3   25.20    4.30
  -7  -8  -3   14.70    4.40
   7   8   3   20.70    4.30
  -8  -8  -3   -0.70    5.10
   8   8   3    2.10    3.40
   3  -9  -3   14.30    3.80
  -3   9   3    7.60    3.20
   2  -9  -3   19.90    3.80
  -2   9   3   22.80    3.60
   1  -9  -3   13.20    3.30
  -1   9   3   14.10    2.90
   0  -9  -3  143.09    8.20
   0   9   3  133.69    7.70
   0   9   3  145.79    8.60
  -1  -9  -3   90.99    6.00
   1   9   3   66.99    5.40
   1   9   3   75.69    5.30
  -2  -9  -3    7.00    2.30
   2   9   3    5.20    2.20
   2   9   3    6.00    4.40
  -3  -9  -3    7.00    2.50
   3   9   3    8.10    2.50
  -4  -9  -3   62.69    6.20
   4   9   3   45.70    5.10
  -5  -9  -3   60.59    6.10
   5   9   3   47.50    5.60
  -6  -9  -3   36.90    5.70
   6   9   3   32.70    4.90
  -7  -9  -3   20.50    5.60
   7   9   3   16.60    4.40
   2 -10  -3    4.70    3.40
  -2  10   3    2.70    3.20
   1 -10  -3   14.90    3.50
  -1  10   3    6.40    3.20
   0 -10  -3   32.40    4.60
   0  10   3   18.10    5.80
  -1 -10  -3   10.40    3.20
  -2 -10  -3   50.79    5.70
   2  10   3   37.70    4.80
  -3 -10  -3    1.00    2.70
   3  10   3    3.40    2.40
  -4 -10  -3   57.49    6.10
   4  10   3   37.60    4.80
  -5 -10  -3   23.70    4.70
   5  10   3   22.20    4.20
  -6 -10  -3   13.10    4.00
   6  10   3    8.80    3.20
  -7 -10  -3    6.40    5.40
   7  10   3    5.00    3.90
   1 -11  -3   29.20    5.20
   0 -11  -3   53.59    5.80
  -3 -11  -3   12.40    4.10
  -4 -11  -3    7.40    3.30
   4  11   3    6.90    5.30
  -5 -11  -3   49.70    6.90
   5  11   3   29.60    5.00
  -6 -11  -3   20.90    5.80
   6  11   3   23.90    5.10
  -3 -12  -3   65.99    8.70
  -4 -12  -3    4.70    4.20
   3  11  -4    4.10    4.50
   3  11  -4    0.70    4.70
  -3 -11   4    0.40    4.10
   2  11  -4   -2.80    4.00
  -2 -11   4   -2.50    3.10
   5  10  -4    2.90    6.90
   5  10  -4   -0.40    4.70
   5  10  -4    1.40    4.70
  -5 -10   4   -2.90    4.90
   4  10  -4   37.00    6.40
   4  10  -4   45.60    8.40
   4  10  -4   32.00    6.10
  -4 -10   4   33.40    5.60
   3  10  -4   79.89    9.60
   3  10  -4   72.79    7.70
   3  10  -4   75.39    7.60
  -3 -10   4   69.39    7.30
   2  10  -4    0.60    4.90
   2  10  -4   -0.40    3.30
  -2 -10   4    3.20    2.90
   1  10  -4   36.70    5.40
  -1 -10   4   42.30    5.80
   0  10  -4   -1.40    3.00
  -1  10  -4   -1.30    3.30
   1 -10   4    3.50    4.20
   6   9  -4   22.50    5.80
   6   9  -4   19.20    7.10
   6   9  -4   26.40    6.00
  -6  -9   4   28.00    6.50
   5   9  -4   42.90    7.50
   5   9  -4   34.20    5.90
   5   9  -4   43.80    6.50
  -5  -9   4   40.00    6.50
   4   9  -4   42.90    6.00
   4   9  -4   47.00    6.00
   4   9  -4   55.49    7.80
  -4  -9   4   40.90    5.50
   3   9  -4   39.70    5.50
   3   9  -4   41.10    6.70
   3   9  -4   31.40    5.10
  -3  -9   4   36.20    4.90
   2   9  -4   22.00    4.20
   2   9  -4   24.30    5.50
   2   9  -4   23.60    4.30
  -2  -9   4   19.10    3.90
   1   9  -4    4.50    3.00
   1   9  -4    9.40    4.40
  -1  -9   4    5.60    2.70
   0   9  -4    9.40    3.40
   0  -9   4   10.30    3.30
   0  -9   4   13.30    3.80
  -1   9  -4    2.70    3.00
   1  -9   4    5.00    3.40
  -2   9  -4    2.80    3.30
   2  -9   4    2.20    3.60
   7   8  -4   86.19    9.50
   7   8  -4   97.59    9.90
   7   8  -4  101.89   11.00
  -7  -8   4   96.89   10.00
   6   8  -4    4.10    4.00
   6   8  -4    1.40    5.10
   6   8  -4    2.90    3.90
  -6  -8   4    1.50    4.30
   5   8  -4   34.00    6.10
   5   8  -4   37.20    5.20
   5   8  -4   44.40    5.50
  -5  -8   4   44.30    6.20
   4   8  -4   -3.30    2.30
   4   8  -4   -4.10    3.10
   4   8  -4   -0.60    2.80
  -4  -8   4   -1.40    3.00
   3   8  -4   16.40    3.50
   3   8  -4    9.50    3.10
   3   8  -4   12.20    4.30
  -3  -8   4    9.20    2.80
   2   8  -4   15.40    3.20
   2   8  -4   24.50    4.90
   2   8  -4    7.90    2.80
  -2  -8   4   25.80    4.00
   1   8  -4   23.00    4.80
   1   8  -4   27.80    3.90
  -1  -8   4   26.70    3.90
   0   8  -4   49.50    6.70
   0   8  -4   50.79    5.30
   0  -8   4   60.59    5.30
   0  -8   4   58.69    5.50
  -1   8  -4   16.00    3.50
   1  -8   4   13.40    3.30
  -2   8  -4    6.30    2.90
   2  -8   4    5.20    3.10
  -3   8  -4    9.70    2.70
   3  -8   4    7.70    3.90
  -4   8  -4    1.30    3.50
   4  -8   4    0.60    4.50
   7   7  -4   20.10    6.50
   7   7  -4   26.40    5.70
  -7  -7   4   16.00    5.60
  -7  -7   4   24.80    4.90
  -6  -7   4   30.60    4.90
  -6  -7   4   39.80    6.10
   5   7  -4   10.70    3.50
   5   7  -4    9.40    3.60
   5   7  -4   14.50    4.20
  -5  -7   4   11.00    3.90
   4   7  -4   14.20    3.20
   4   7  -4   11.20    3.60
   4   7  -4   10.90    3.00
  -4  -7   4    8.00    3.20
   3   7  -4   51.69    5.20
   3   7  -4   48.50    5.00
   3   7  -4   53.59    5.80
  -3  -7   4   52.29    5.30
   2   7  -4   30.80    4.70
   2   7  -4   41.30    4.60
   2   7  -4   40.70    4.50
  -2  -7   4   36.10    4.20
   1   7  -4   36.50    4.20
   1   7  -4   33.70    4.00
   1   7  -4   34.40    4.80
  -1  -7   4   28.70    3.70
  -1  -7   4   34.60    3.40
   0   7  -4   79.69    5.70
   0   7  -4   68.09    6.80
   0  -7   4   76.89    5.40
   0  -7   4   79.79    5.50
  -1   7  -4   89.29    5.90
  -1   7  -4   83.29    7.90
   1  -7   4   87.49    5.80
   1  -7   4   87.89    6.30
  -2   7  -4    8.50    2.30
   2  -7   4    8.70    2.80
  -3   7  -4    2.50    1.90
   3  -7   4    1.30    2.70
  -4   7  -4    4.10    2.30
   4  -7   4    8.50    3.60
   7   6  -4   31.20    4.90
   7   6  -4   26.10    5.60
  -7  -6   4   29.40    4.70
  -7  -6   4   32.10    7.00
   6   6  -4    4.30    3.50
   6   6  -4    1.90    2.20
  -6  -6   4    1.50    3.20
  -6  -6   4    3.40    2.60
   5   6  -4   13.50    3.60
   5   6  -4   21.80    3.50
  -5  -6   4   24.40    3.80
  -5  -6   4   17.60    4.10
   4   6  -4   38.80    4.70
   4   6  -4   36.70    4.50
   4   6  -4   40.60    4.60
  -4  -6   4   41.00    4.80
   3   6  -4  193.68   10.10
   3   6  -4  192.58   10.50
   3   6  -4  206.18   10.20
  -3  -6   4  192.38   10.30
   2   6  -4   10.30    2.40
   2   6  -4    7.80    2.20
   2   6  -4   13.30    2.90
  -2  -6   4    8.70    2.30
   1   6  -4  191.58    9.50
   1   6  -4  178.08   10.10
  -1  -6   4  196.88    9.00
  -1  -6   4  185.08    9.70
   0   6  -4   25.00    3.90
   0   6  -4   20.40    2.80
   0  -6   4   23.40    3.20
   0  -6   4   23.80    2.90
  -1   6  -4  316.27   15.50
  -1   6  -4  312.17   14.40
   1  -6   4  312.17   14.50
   1  -6   4  319.67   14.30
  -2   6  -4  161.28    8.50
   2  -6   4  177.28    9.40
  -3   6  -4    1.10    1.70
   3  -6   4    4.90    2.40
  -4   6  -4   -0.40    1.80
   4  -6   4   -0.30    2.00
  -5   6  -4    0.70    2.10
   5  -6   4    4.80    2.50
   8   5  -4    6.40    6.10
   8   5  -4    9.90    4.30
  -8  -5   4    1.70    4.40
   7   5  -4   34.40    6.10
   7   5  -4   34.90    5.10
  -7  -5   4   38.00    5.30
   6   5  -4   58.89    6.30
   6   5  -4   75.99    7.00
  -6  -5   4   64.59    6.40
  -6  -5   4   64.19    6.00
   5   5  -4   -0.20    2.10
   5   5  -4    2.90    1.90
  -5  -5   4   -0.40    2.30
  -5  -5   4    0.30    1.70
   4   5  -4  306.57   14.70
   4   5  -4  327.27   14.60
  -4  -5   4  307.57   14.70
  -4  -5   4  311.97   14.50
   3   5  -4  513.85   23.30
   3   5  -4  528.65   23.30
   3   5  -4  552.64   23.40
   3   5  -4  574.64   22.80
  -3  -5   4  544.15   23.60
   2   5  -4   73.79    4.80
   2   5  -4   74.79    5.20
   2   5  -4   78.79    5.00
  -2  -5   4   88.69    4.70
  -2  -5   4   82.29    5.60
   1   5  -4   63.39    4.90
   1   5  -4   65.19    4.30
   1   5  -4   61.09    4.30
  -1  -5   4   64.49    4.60
  -1  -5   4   71.59    4.20
   0   5  -4  189.28    9.20
   0   5  -4  188.38    9.20
   0   5  -4  191.28    9.90
   0  -5   4  208.28   10.00
   0  -5   4  206.28    9.60
  -1   5  -4   10.60    2.00
  -1   5  -4   13.50    2.80
   1  -5   4   11.90    2.20
   1  -5   4   12.40    2.20
  -2   5  -4  288.27   13.60
  -2   5  -4  316.17   15.00
   2  -5   4  314.97   14.30
   2  -5   4  314.27   13.90
  -3   5  -4   68.59    4.80
   3  -5   4   66.19    5.40
  -4   5  -4   18.30    3.10
   4  -5   4   20.10    3.30
  -5   5  -4   10.10    2.70
   5  -5   4    4.90    2.60
  -6   5  -4    0.10    2.40
   6  -5   4    7.20    2.90
   8   4  -4   30.10    5.30
   8   4  -4   27.60    6.60
  -8  -4   4   20.10    4.80
   7   4  -4   15.20    4.50
   7   4  -4   18.20    4.00
  -7  -4   4   11.30    3.30
   6   4  -4   17.40    3.50
   6   4  -4   13.00    3.40
  -6  -4   4   13.00    3.80
  -6  -4   4   15.90    3.30
   5   4  -4   18.50    3.10
   5   4  -4   20.70    3.00
  -5  -4   4   21.20    3.60
  -5  -4   4   30.20    3.70
   4   4  -4   52.19    4.00
   4   4  -4   50.79    4.30
  -4  -4   4   48.80    4.60
  -4  -4   4   50.79    4.60
   3   4  -4   76.99    4.80
   3   4  -4   79.99    4.80
  -3  -4   4   79.69    5.40
  -3  -4   4   87.29    5.40
   2   4  -4  360.36   16.20
   2   4  -4  404.66   15.80
   2   4  -4  363.26   16.20
   2   4  -4  371.06   16.30
  -2  -4   4  397.66   17.50
  -2  -4   4  401.86   16.40
   1   4  -4  154.18    7.80
   1   4  -4  160.18    7.90
   1   4  -4  164.38    8.10
  -1  -4   4  182.28    8.90
  -1  -4   4  183.08    8.20
   0   4  -4   97.79    5.60
   0   4  -4  101.49    6.00
   0   4  -4  102.89    5.60
   0  -4   4  101.29    5.40
   0  -4   4  111.99    5.90
  -1   4  -4   74.89    5.20
  -1   4  -4   68.19    4.40
   1  -4   4   74.49    4.40
   1  -4   4   72.59    4.60
  -2   4  -4  131.69    6.80
  -2   4  -4  124.09    7.60
   2  -4   4  126.89    6.90
   2  -4   4  132.49    6.60
  -3   4  -4   51.49    3.80
   3  -4   4   48.50    4.10
  -4   4  -4    1.00    1.40
   4  -4   4    6.40    2.00
  -5   4  -4    4.70    2.00
   5  -4   4   14.80    3.00
  -6   4  -4    0.10    1.80
   6  -4   4   -0.20    2.50
   8   3  -4    7.80    3.90
   8   3  -4    6.70    5.40
  -8  -3   4    5.90    3.80
   7   3  -4   41.80    5.90
   7   3  -4   36.40    5.10
  -7  -3   4   31.00    4.50
   6   3  -4   45.90    4.90
   6   3  -4   36.60    4.50
  -6  -3   4   47.30    5.00
   5   3  -4   45.70    4.50
   5   3  -4   34.50    3.70
  -5  -3   4   45.60    4.30
  -5  -3   4   34.40    4.00
   4   3  -4   16.70    2.60
   4   3  -4   16.70    2.30
  -4  -3   4   16.00    2.70
  -4  -3   4   19.50    2.70
   3   3  -4  107.89    5.70
   3   3  -4  100.19    5.20
  -3  -3   4  111.29    6.20
  -3  -3   4  109.29    6.20
   2   3  -4  402.56   17.20
   2   3  -4  387.16   17.30
   2   3  -4  461.45   17.30
  -2  -3   4  449.06   19.50
  -2  -3   4  467.25   18.60
  -2  -3   4  457.35   19.40
   1   3  -4   82.09    4.50
   1   3  -4   71.99    4.40
   1   3  -4   90.79    3.90
   1   3  -4   74.29    4.40
  -1  -3   4   81.79    4.90
  -1  -3   4   92.99    4.50
   0   3  -4  106.99    5.50
   0   3  -4  107.99    5.70
   0   3  -4  107.19    5.50
   0  -3   4  104.39    5.50
   0  -3   4  119.39    5.80
  -1   3  -4  131.69    6.90
  -1   3  -4  125.09    6.30
   1  -3   4  140.39    6.50
   1  -3   4  123.09    6.40
  -2   3  -4   76.89    4.40
  -2   3  -4   75.89    5.10
   2  -3   4   74.19    4.70
   2  -3   4   82.89    4.40
  -3   3  -4    8.10    1.50
  -3   3  -4   11.60    2.80
  -3   3  -4    7.90    1.80
   3  -3   4    9.60    2.00
  -4   3  -4    4.10    1.50
   4  -3   4    9.40    2.00
  -5   3  -4   10.30    2.30
   5  -3   4   10.50    2.50
  -6   3  -4    0.60    1.80
   6  -3   4    0.50    4.30
  -7   3  -4   -0.40    2.00
   7  -3   4   -1.10    3.40
   8   2  -4    3.60    3.40
   8   2  -4    8.60    5.30
  -8  -2   4   10.40    3.80
   7   2  -4   17.10    4.50
   7   2  -4   18.20    3.60
  -7  -2   4   25.80    4.50
   6   2  -4    6.20    2.70
   6   2  -4    9.50    2.50
  -6  -2   4   11.70    3.10
   5   2  -4   45.90    4.50
   5   2  -4   51.59    4.10
  -5  -2   4   61.09    4.80
   4   2  -4  112.99    5.80
   4   2  -4  107.89    6.40
  -4  -2   4  133.29    7.00
  -4  -2   4  129.39    7.00
   3   2  -4    8.20    1.30
   3   2  -4    9.20    1.50
   3   2  -4    6.40    1.60
  -3  -2   4   10.60    1.90
  -3  -2   4   10.40    1.80
  -3  -2   4   12.10    1.30
   2   2  -4  224.08    9.70
   2   2  -4  253.57   10.20
   2   2  -4  228.98    9.60
  -2  -2   4  229.68   10.70
  -2  -2   4  242.58   10.00
  -2  -2   4  249.38   10.70
   1   2  -4  850.01   35.70
   1   2  -4  836.92   35.70
   1   2  -4  950.70   35.30
   1   2  -4  981.10   35.30
   1   2  -4  834.92   35.30
  -1  -2   4  925.91   37.90
  -1  -2   4  964.70   37.50
   0   2  -4 1520.65   61.59
   0   2  -4 1601.44   61.69
   0   2  -4 1567.94   61.69
   0  -2   4 1563.84   63.49
   0  -2   4 1663.33   63.79
  -1   2  -4  484.75   20.40
  -1   2  -4  514.45   20.80
   1  -2   4  518.05   20.80
   1  -2   4  493.75   20.70
  -2   2  -4   76.79    4.10
  -2   2  -4   84.59    5.00
  -2   2  -4   81.29    4.20
   2  -2   4   86.79    4.00
   2  -2   4   84.89    4.70
  -3   2  -4   28.70    3.40
  -3   2  -4   23.50    2.40
  -3   2  -4   29.50    2.50
   3  -2   4   23.20    2.70
   3  -2   4   28.40    2.50
  -4   2  -4   40.50    3.60
  -4   2  -4   43.80    3.40
   4  -2   4   40.30    3.80
  -5   2  -4    1.20    1.40
   5  -2   4   -0.90    1.40
  -6   2  -4    3.50    1.80
   6  -2   4    8.70    2.40
  -7   2  -4    4.80    2.30
   8   1  -4    2.50    3.30
   8   1  -4   -0.60    4.90
  -8  -1   4   -2.30    3.90
   7   1  -4   28.20    4.40
   7   1  -4   20.90    4.70
  -7  -1   4   29.50    4.70
   6   1  -4   15.30    3.30
   6   1  -4   12.50    2.80
  -6  -1   4   19.70    3.60
   5   1  -4    3.40    1.70
   5   1  -4    4.00    1.70
  -5  -1   4    5.40    2.10
   4   1  -4   71.49    4.40
   4   1  -4   73.59    4.80
  -4  -1   4   89.49    5.30
  -4  -1   4   84.89    5.10
   3   1  -4   85.59    4.40
   3   1  -4   97.79    4.50
   3   1  -4  100.19    5.30
  -3  -1   4  108.89    5.40
  -3  -1   4   90.99    5.50
  -3  -1   4  109.49    5.50
  -2  -1   4  301.07   12.90
  -2  -1   4  294.37   12.70
  -2  -1   4  307.87   12.40
  -2  -1   4  294.37   12.70
  -1  -1   4 1135.29   44.70
  -1  -1   4 1097.79   44.80
  -1  -1   4 1207.18   44.80
  -1  -1   4 1092.29   45.00
   0   1  -4   21.60    1.70
   0   1  -4   24.10    1.70
   0   1  -4   20.40    1.80
   0  -1   4   26.70    2.20
   0  -1   4   23.20    1.90
  -1   1  -4  904.91   34.80
  -1   1  -4  847.22   35.00
   1  -1   4  878.21   35.30
   1  -1   4  894.01   35.30
  -2   1  -4   39.50    2.50
  -2   1  -4   37.50    2.50
  -2   1  -4   42.30    3.20
   2  -1   4   47.40    2.70
   2  -1   4   44.60    3.00
  -3   1  -4  152.38    7.40
  -3   1  -4  163.68    7.30
  -3   1  -4  168.68    8.30
   3  -1   4  168.88    8.00
   3  -1   4  168.38    7.80
   3  -1   4  176.88    9.10
  -4   1  -4   65.69    4.00
  -4   1  -4   64.09    4.00
   4  -1   4   71.89    4.60
   4  -1   4   72.09    4.50
  -5   1  -4    4.90    1.50
   5  -1   4    8.70    1.90
   5  -1   4    8.70    2.30
  -6   1  -4   18.20    2.70
   6  -1   4   16.70    5.90
   6  -1   4   18.50    2.80
  -8   1  -4   46.00    5.30
   8   0  -4    5.90    5.60
   8   0  -4    6.50    4.70
  -8   0   4    9.30    5.00
   7   0  -4    9.60    4.30
   7   0  -4    6.10    3.30
  -7   0   4    6.70    3.30
   6   0  -4   16.10    3.60
   6   0  -4   13.70    3.10
  -6   0   4   18.60    3.50
   5   0  -4   55.59    4.60
   5   0  -4   54.69    4.60
  -5   0   4   60.69    5.10
   4   0  -4   15.20    2.20
   4   0  -4   17.60    1.90
  -4   0   4   13.00    2.50
  -4   0   4   18.00    2.60
   3   0  -4   59.99    3.10
   3   0  -4   53.69    3.00
   3   0  -4   51.29    3.20
  -3   0   4   65.39    4.00
  -3   0   4   67.39    3.70
  -3   0   4   63.39    4.30
  -2   0   4 1525.55   58.49
  -2   0   4 1485.25   58.59
  -2   0   4 1449.46   58.89
  -2   0   4 1476.95   58.29
  -1   0   4  979.00   39.70
  -1   0   4 1023.00   39.80
  -1   0   4  989.50   39.80
  -1   0   4 1035.70   40.00
   0   0  -4  214.58    8.40
   0   0  -4  193.88    8.20
   0   0  -4  199.48    8.30
   0   0  -4  207.88    8.40
   0   0   4  228.88    9.60
   0   0   4  226.58    9.60
   0   0   4  228.68    9.50
  -1   0  -4  520.55   21.20
  -1   0  -4  522.55   21.30
  -1   0  -4  536.95   21.00
   1   0   4  544.25   22.40
   1   0   4  567.34   22.20
  -2   0  -4  701.63   27.60
  -2   0  -4  663.83   27.10
  -2   0  -4  667.73   26.90
   2   0   4  703.03   29.50
   2   0   4  766.42   29.40
  -3   0  -4  545.15   23.00
  -3   0  -4  552.54   22.20
  -3   0  -4  547.05   22.20
   3   0   4  566.24   22.80
   3   0   4  539.45   23.50
   3   0   4  562.24   22.80
  -4   0  -4    1.10    1.00
  -4   0  -4    2.30    1.30
  -4   0  -4    1.30    2.10
   4   0   4    0.80    1.20
   4   0   4    2.60    1.10
   4   0   4    3.90    2.20
  -5   0  -4   13.40    2.10
  -5   0  -4   11.70    2.30
   5   0   4   17.70    2.80
   5   0   4   14.10    2.20
  -6   0  -4    4.50    1.60
   6   0   4    3.80    2.30
   6   0   4    6.70    2.30
  -7   0  -4    4.60    2.20
   7   0   4    1.90    2.80
  -8   0  -4    1.60    2.70
   7  -1  -4   -3.80    3.90
   7  -1  -4    0.80    2.80
  -7   1   4    4.00    3.50
   6  -1  -4   56.79    6.30
   6  -1  -4   39.30    4.80
  -6   1   4   43.80    4.90
   5  -1  -4   13.50    2.90
   5  -1  -4   13.40    2.70
  -5   1   4   22.20    3.30
   4  -1  -4  143.99    7.60
   4  -1  -4  145.89    7.10
  -4   1   4  158.08    7.80
  -4   1   4  148.09    8.30
   3  -1  -4  118.59    5.60
   3  -1  -4  108.59    5.90
  -3   1   4  113.49    6.40
  -3   1   4  123.69    6.10
   2  -1  -4   61.29    3.10
   2  -1  -4   55.89    3.20
   2  -1  -4   59.39    2.90
  -2   1   4   67.29    3.60
  -2   1   4   62.19    3.20
  -2   1   4   65.09    4.00
  -1   1   4  905.91   36.40
  -1   1   4  930.81   35.90
  -1   1   4  882.01   35.90
  -1   1   4  916.61   36.00
   0  -1  -4  223.48    9.30
   0  -1  -4  226.38    9.10
   0   1   4  244.58   10.60
   0   1   4  253.87   10.50
  -1  -1  -4  551.64   21.90
  -1  -1  -4  542.45   22.00
   1   1   4  584.04   23.70
   1   1   4  595.34   23.70
  -2  -1  -4  172.98    8.00
  -2  -1  -4  164.98    7.50
  -2  -1  -4  179.48    7.20
   2   1   4  172.78    7.80
   2   1   4  174.28    7.60
  -3  -1  -4  163.28    7.10
  -3  -1  -4  163.38    8.00
  -3  -1  -4  158.38    7.30
   3   1   4  164.58    7.60
   3   1   4  164.08    7.30
   3   1   4  153.18    8.10
  -4  -1  -4   36.60    2.90
  -4  -1  -4   41.90    4.10
  -4  -1  -4   34.90    2.60
   4   1   4   39.70    2.80
   4   1   4   35.90    3.30
   4   1   4   35.20    3.90
  -5  -1  -4   11.00    1.90
  -5  -1  -4   13.50    2.30
   5   1   4   10.10    3.50
   5   1   4   13.90    2.00
   5   1   4   13.60    2.40
  -6  -1  -4    0.20    1.30
   6   1   4    2.60    2.10
  -7  -1  -4   17.30    3.00
   7   1   4   17.00    3.50
  -8  -1  -4  105.69    7.80
   8   1   4  108.99    8.90
   7  -2  -4    0.10    3.30
   7  -2  -4   -0.70    4.80
  -7   2   4    1.40    3.50
   6  -2  -4   22.20    4.90
   6  -2  -4   14.80    3.70
  -6   2   4   27.50    4.20
   5  -2  -4   33.40    3.40
   5  -2  -4   39.10    4.70
  -5   2   4   31.50    3.80
  -5   2   4   30.90    3.90
   4  -2  -4   40.10    3.40
   4  -2  -4   45.90    4.30
  -4   2   4   48.50    4.10
  -4   2   4   49.00    4.70
   3  -2  -4   41.20    3.00
   3  -2  -4   40.40    3.60
  -3   2   4   40.00    3.10
  -3   2   4   41.30    3.90
   2  -2  -4  151.38    6.30
   2  -2  -4  151.58    7.10
   2  -2  -4  149.99    6.90
  -2   2   4  164.48    7.40
  -2   2   4  165.88    8.00
   1  -2  -4  380.26   15.20
   1  -2  -4  387.36   15.70
   1  -2  -4  379.66   15.70
  -1   2   4  416.26   17.10
  -1   2   4  398.46   16.40
   0  -2  -4  305.97   12.40
   0  -2  -4  304.27   12.60
   0   2   4  331.67   13.50
   0   2   4  323.17   13.80
  -1  -2  -4  653.33   26.30
  -1  -2  -4  654.33   26.00
   1   2   4  685.33   27.40
   1   2   4  669.63   27.10
  -2  -2  -4   61.29    3.30
  -2  -2  -4   59.39    2.90
  -2  -2  -4   58.09    3.70
   2   2   4   55.79    3.40
   2   2   4   57.49    3.10
  -3  -2  -4   23.40    2.30
  -3  -2  -4   30.70    3.10
  -3  -2  -4   23.30    1.80
   3   2   4   27.40    2.10
   3   2   4   20.00    2.60
   3   2   4   18.50    2.20
  -4  -2  -4   50.69    4.50
  -4  -2  -4   45.20    2.90
  -4  -2  -4   41.80    3.40
   4   2   4   38.70    2.80
   4   2   4   42.60    3.80
   4   2   4   53.29    5.00
  -5  -2  -4   22.10    2.50
  -5  -2  -4   26.70    3.00
   5   2   4   22.60    2.50
   5   2   4   24.40    3.20
   5   2   4   24.90    3.80
  -6  -2  -4   17.50    3.00
  -6  -2  -4   18.00    2.60
   6   2   4   11.30    2.80
  -7  -2  -4    3.70    2.00
   7   2   4    3.10    2.40
  -8  -2  -4    2.30    2.80
   8   2   4   -0.30    3.10
   7  -3  -4    7.50    5.70
   7  -3  -4    8.00    3.90
  -7   3   4    7.30    4.00
   6  -3  -4    6.70    3.20
   6  -3  -4    5.80    4.30
  -6   3   4    5.00    3.00
   5  -3  -4   36.80    5.10
   5  -3  -4   27.20    3.30
  -5   3   4   25.60    3.60
  -5   3   4   47.20    5.10
   4  -3  -4  210.88   11.60
   4  -3  -4  233.48   10.60
  -4   3   4  222.28   11.30
  -4   3   4  225.48   10.70
   3  -3  -4   58.99    3.90
   3  -3  -4   62.29    4.70
  -3   3   4   70.99    4.40
  -3   3   4   75.19    5.00
   2  -3  -4   73.19    4.00
   2  -3  -4   59.79    4.30
  -2   3   4   76.79    4.80
  -2   3   4   79.79    4.20
   1  -3  -4    9.20    1.00
   1  -3  -4    8.20    1.60
   1  -3  -4    9.90    1.40
  -1   3   4   10.00    1.30
  -1   3   4   10.60    1.80
   0  -3  -4  209.18    9.70
   0  -3  -4  216.68    9.50
   0  -3  -4  232.68    9.20
   0   3   4  213.58   10.00
   0   3   4  233.78    9.20
  -1  -3  -4  295.37   12.70
  -1  -3  -4  296.37   12.30
   1   3   4  285.77   12.30
   1   3   4  277.37   11.80
  -2  -3  -4  346.67   14.30
  -2  -3  -4  339.47   14.80
   2   3   4  307.07   13.80
   2   3   4  332.37   13.30
  -3  -3  -4   89.09    4.80
  -3  -3  -4   88.89    4.30
  -3  -3  -4   90.09    5.40
   3   3   4   87.99    4.30
   3   3   4   78.79    4.90
   3   3   4   89.59    5.60
  -4  -3  -4  182.58    8.10
  -4  -3  -4  175.08    8.50
  -4  -3  -4  183.98    9.50
   4   3   4  188.78    9.30
   4   3   4  163.38    7.70
   4   3   4  175.28    8.90
  -5  -3  -4   22.00    2.80
  -5  -3  -4   19.50    2.50
   5   3   4   21.20    3.70
   5   3   4   13.00    2.60
  -6  -3  -4  118.39    7.00
  -6  -3  -4  101.39    6.20
   6   3   4   95.99    6.80
  -7  -3  -4    1.10    2.00
   7   3   4    2.10    2.50
  -8  -3  -4   10.80    3.80
   8   3   4   14.70    4.20
   6  -4  -4   11.40    3.70
   6  -4  -4    8.60    5.00
   6  -4  -4   16.80    3.40
  -6   4   4    9.80    3.20
   5  -4  -4    3.40    1.90
   5  -4  -4    1.80    3.60
  -5   4   4    1.00    2.30
  -5   4   4    7.00    2.60
   4  -4  -4  139.59    9.10
   4  -4  -4  124.09    7.10
  -4   4   4  127.29    7.70
  -4   4   4  126.59    7.20
   3  -4  -4  287.67   14.10
   3  -4  -4  294.07   13.00
  -3   4   4  339.97   14.80
  -3   4   4  336.17   15.60
   2  -4  -4    7.10    2.10
   2  -4  -4    8.30    1.70
  -2   4   4    9.90    1.60
  -2   4   4    7.30    1.80
   1  -4  -4  219.58    8.80
   1  -4  -4  201.68   10.00
   1  -4  -4  205.58    9.40
  -1   4   4  220.48    9.50
  -1   4   4  224.88   10.40
   0  -4  -4   58.89    3.60
   0  -4  -4   68.69    3.40
   0  -4  -4   58.39    4.30
   0   4   4   67.89    3.20
   0   4   4   56.69    3.90
  -1  -4  -4  848.42   34.20
  -1  -4  -4  821.62   33.40
  -1  -4  -4  840.72   33.40
   1   4   4  739.13   29.10
   1   4   4  741.33   30.20
  -2  -4  -4   52.69    3.30
  -2  -4  -4   54.59    4.20
   2   4   4   49.80    4.30
   2   4   4   53.59    2.90
   2   4   4   46.90    2.60
   2   4   4   45.70    3.50
   2   4   4   48.40    2.60
  -3  -4  -4  108.89    6.30
  -3  -4  -4   97.99    4.90
  -3  -4  -4  101.49    5.40
   3   4   4  103.29    4.70
   3   4   4   95.19    5.60
   3   4   4   96.79    6.20
  -4  -4  -4   25.40    2.40
  -4  -4  -4   26.10    2.80
   4   4   4   26.40    3.10
   4   4   4   28.60    3.80
   4   4   4   26.80    2.70
  -5  -4  -4  103.79    6.30
  -5  -4  -4  102.79    5.60
   5   4   4  102.39    6.80
   5   4   4  110.19    7.70
  -6  -4  -4    1.10    1.90
  -6  -4  -4    6.70    2.40
   6   4   4    6.00    2.50
  -7  -4  -4   11.20    3.10
  -7  -4  -4   11.00    3.30
   7   4   4    8.50    3.10
   8   4   4    8.60    3.70
   6  -5  -4    0.70    3.40
   6  -5  -4    6.60    5.30
   6  -5  -4    5.20    3.10
  -6   5   4    7.30    3.60
   5  -5  -4   10.00    4.90
   5  -5  -4    1.40    2.20
  -5   5   4    3.50    2.70
  -5   5   4    5.70    2.60
   4  -5  -4   56.39    6.70
   4  -5  -4   59.99    5.10
  -4   5   4   49.20    4.50
  -4   5   4   51.19    5.20
   3  -5  -4    6.60    3.00
   3  -5  -4    4.70    1.60
  -3   5   4    2.90    1.70
  -3   5   4    8.30    2.00
   2  -5  -4   50.89    3.90
   2  -5  -4   63.79    5.80
  -2   5   4   67.19    4.20
  -2   5   4   69.99    4.90
   1  -5  -4   97.99    6.10
   1  -5  -4   89.09    5.20
  -1   5   4   98.09    4.90
  -1   5   4   95.09    5.70
   0  -5  -4  174.08    7.70
   0  -5  -4  171.08    8.90
   0  -5  -4  169.38    8.00
   0   5   4  177.58    7.70
   0   5   4  170.98    8.50
  -1  -5  -4  574.04   24.10
  -1  -5  -4  559.94   23.00
  -1  -5  -4  555.24   22.90
   1   5   4  508.25   20.20
   1   5   4  498.75   21.30
  -2  -5  -4   83.19    4.20
  -2  -5  -4   73.79    4.40
  -2  -5  -4   74.79    5.40
   2   5   4   67.49    3.60
   2   5   4   62.49    4.30
   2   5   4   75.09    5.60
   2   5   4   72.59    3.70
  -3  -5  -4   27.40    3.10
  -3  -5  -4   26.80    3.40
   3   5   4   19.20    2.60
   3   5   4   22.60    1.90
   3   5   4   26.80    2.30
   3   5   4   24.80    2.20
   3   5   4   18.90    3.30
  -4  -5  -4   41.30    3.90
  -4  -5  -4   42.30    3.40
   4   5   4   32.00    3.60
   4   5   4   40.90    4.90
  -5  -5  -4   73.09    5.50
  -5  -5  -4   80.19    5.20
   5   5   4   63.49    5.20
   5   5   4   81.99    7.30
  -6  -5  -4   25.20    3.90
   6   5   4   15.40    3.30
  -7  -5  -4    4.40    3.10
   7   5   4    5.20    3.30
   8   5   4   10.40    4.10
   5  -6  -4    3.20    5.30
   5  -6  -4    3.30    2.50
  -5   6   4    4.80    2.90
  -5   6   4    5.10    3.10
   4  -6  -4    7.30    2.40
   4  -6  -4    3.10    4.50
  -4   6   4    2.30    2.40
  -4   6   4    1.10    2.00
   3  -6  -4    2.00    3.40
   3  -6  -4    6.40    2.00
  -3   6   4    1.90    1.80
  -3   6   4    1.40    1.70
   2  -6  -4    1.50    2.90
   2  -6  -4    3.40    1.50
  -2   6   4    6.70    1.90
  -2   6   4    6.90    1.90
   1  -6  -4  105.69    7.10
   1  -6  -4   88.79    5.50
  -1   6   4   97.89    6.10
  -1   6   4   99.09    5.30
   0  -6  -4   83.09    6.10
   0  -6  -4   80.69    4.60
   0  -6  -4   83.89    4.90
   0   6   4   97.89    4.90
   0   6   4   81.39    5.40
  -1  -6  -4  281.77   12.50
  -1  -6  -4  293.97   13.90
  -1  -6  -4  293.07   12.70
   1   6   4  269.07   10.90
   1   6   4  239.08   11.80
  -2  -6  -4  101.79    5.00
  -2  -6  -4   98.89    6.80
  -2  -6  -4   87.49    5.40
   2   6   4   73.09    5.10
   2   6   4   81.69    4.40
   2   6   4   86.79    4.40
  -3  -6  -4   16.70    2.50
  -3  -6  -4   19.30    3.90
  -3  -6  -4   17.20    2.00
   3   6   4   14.00    2.00
   3   6   4   13.70    2.40
   3   6   4   16.80    2.10
  -4  -6  -4   38.90    3.80
   4   6   4   27.20    3.30
  -5  -6  -4   31.40    4.00
   5   6   4   30.90    4.00
  -6  -6  -4   40.20    4.80
   6   6   4   31.40    4.40
  -7  -6  -4    1.50    3.20
   7   6   4    0.80    2.60
  -8  -6  -4   41.60    6.30
   8   6   4   29.50    5.40
   5  -7  -4   10.80    3.40
   5  -7  -4    5.80    7.70
  -5   7   4    7.50    4.00
  -5   7   4   13.70    5.30
   4  -7  -4    3.40    4.90
   4  -7  -4    3.80    2.50
  -4   7   4    3.00    2.70
  -4   7   4    1.80    2.50
   3  -7  -4    8.40    4.50
   3  -7  -4   10.80    2.40
  -3   7   4   11.80    2.70
  -3   7   4    8.10    2.70
   2  -7  -4   12.90    4.00
   2  -7  -4   11.40    2.40
  -2   7   4   12.70    2.80
  -2   7   4    9.90    2.30
   1  -7  -4   75.79    7.30
   1  -7  -4   56.99    4.70
  -1   7   4   55.29    4.80
  -1   7   4   67.99    4.30
   0  -7  -4  120.89    6.90
   0  -7  -4  155.38    9.30
   0   7   4  139.09    6.80
   0   7   4  127.49    7.50
  -1  -7  -4  629.74   27.20
  -1  -7  -4  609.54   25.40
  -1  -7  -4  608.34   25.50
   1   7   4  545.45   24.30
   1   7   4  587.64   23.30
  -2  -7  -4  276.97   12.60
  -2  -7  -4  272.07   11.90
  -2  -7  -4  264.67   13.80
   2   7   4  223.98   10.10
   2   7   4  220.88   11.10
  -3  -7  -4   96.89    6.00
   3   7   4   76.89    5.30
  -4  -7  -4   69.09    5.10
   4   7   4   68.79    5.30
  -5  -7  -4  160.78    9.30
   5   7   4  134.79    8.20
  -6  -7  -4   59.19    6.20
   6   7   4   41.50    5.00
  -7  -7  -4   18.20    4.40
   7   7   4    9.70    3.10
  -8  -7  -4    6.90    4.70
   8   7   4    6.70    3.50
   4  -8  -4   29.40    4.30
  -4   8   4   26.70    4.40
   3  -8  -4   45.60    4.90
  -3   8   4   42.90    5.40
  -3   8   4   37.80    4.50
   2  -8  -4   18.50    3.30
   2  -8  -4   25.20    5.90
  -2   8   4   25.60    3.90
  -2   8   4   26.50    3.50
   1  -8  -4    1.90    3.80
   1  -8  -4    3.20    2.00
  -1   8   4    0.80    1.70
  -1   8   4    0.80    1.80
   0  -8  -4   46.20    4.20
   0  -8  -4   43.10    5.90
   0   8   4   47.90    4.80
   0   8   4   49.99    4.10
  -1  -8  -4   32.50    3.30
  -1  -8  -4   32.60    3.70
   1   8   4   21.70    3.10
  -2  -8  -4  100.69    5.50
  -2  -8  -4   81.49    5.90
   2   8   4   65.49    5.00
  -3  -8  -4    9.50    2.40
   3   8   4    9.60    2.50
  -4  -8  -4    6.00    2.40
   4   8   4    7.10    2.40
  -5  -8  -4   31.00    4.00
   5   8   4   23.80    3.90
  -6  -8  -4   32.30    4.80
   6   8   4   21.20    3.80
  -7  -8  -4   19.70    4.90
   7   8   4   15.40    3.70
  -8  -8  -4    6.60    5.10
   8   8   4    6.40    3.90
   3  -9  -4    5.20    3.60
  -3   9   4    7.20    3.50
   2  -9  -4    1.60    2.80
  -2   9   4    2.90    2.90
   1  -9  -4   35.00    4.40
  -1   9   4   24.00    4.80
  -1   9   4   41.70    4.90
   0  -9  -4   -0.40    2.20
   0   9   4    1.30    1.90
  -1  -9  -4  111.39    6.70
   1   9   4  102.69    6.80
  -2  -9  -4   50.09    5.00
   2   9   4   37.60    4.40
  -3  -9  -4   61.39    5.70
   3   9   4   40.90    4.80
  -4  -9  -4    2.20    2.30
   4   9   4    0.20    1.70
  -5  -9  -4   55.39    5.80
   5   9   4   41.90    5.40
  -6  -9  -4    8.00    3.90
   6   9   4    9.70    3.10
  -7  -9  -4   75.19    8.30
   7   9   4   54.49    6.90
   2 -10  -4   11.00    3.90
   1 -10  -4   10.80    3.60
   0 -10  -4   27.40    4.10
  -1 -10  -4    6.30    2.80
   1  10   4    1.20    2.50
  -2 -10  -4   46.30    5.50
   2  10   4   40.60    4.90
  -3 -10  -4   15.80    3.70
   3  10   4    5.90    2.40
  -4 -10  -4   30.40    4.70
   4  10   4   25.00    4.20
  -5 -10  -4    4.20    3.00
   5  10   4    5.60    2.90
  -6 -10  -4   45.40    6.00
   6  10   4   36.60    5.70
  -7 -10  -4   18.10    6.00
   7  10   4    8.10    4.10
   1 -11  -4   11.10    4.10
   0 -11  -4   25.60    4.70
  -3 -11  -4    4.60    3.20
   3  11   4    4.40    3.30
  -4 -11  -4    1.70    3.20
   4  11   4    4.90    2.90
  -5 -11  -4   -0.70    3.30
   5  11   4    0.50    2.80
  -6 -11  -4    8.00    4.60
   6  11   4    0.40    3.00
  -4 -12  -4    7.50    4.40
   4  10  -5   51.69    8.90
   4  10  -5   46.90    7.20
   4  10  -5   39.40    7.10
  -4 -10   5   32.20    5.70
   3  10  -5   26.30    5.50
   3  10  -5   44.80    8.20
   3  10  -5   37.80    6.10
  -3 -10   5   42.60    5.90
   2  10  -5    5.90    5.40
   2  10  -5    1.20    3.70
  -2 -10   5    6.90    3.60
   1  10  -5   33.00    5.50
  -1 -10   5   34.00    5.30
   0  10  -5   49.99    6.20
   5   9  -5   14.70    7.60
   5   9  -5   13.10    4.90
   5   9  -5   17.80    5.10
  -5  -9   5    9.10    5.00
   4   9  -5   26.00    6.80
   4   9  -5   26.70    5.00
   4   9  -5   30.60    5.40
  -4  -9   5   31.50    5.10
   3   9  -5    5.30    4.50
   3   9  -5    2.90    3.30
   3   9  -5    4.00    3.40
  -3  -9   5    4.40    2.80
   2   9  -5   -3.20    2.80
   2   9  -5    0.70    3.90
   2   9  -5    0.80    3.10
  -2  -9   5   -2.20    2.10
   1   9  -5   34.80    6.30
   1   9  -5   44.90    5.60
  -1  -9   5   40.20    5.10
   0   9  -5   26.40    4.50
   0  -9   5   27.90    4.70
   0  -9   5   23.10    4.50
  -1   9  -5   23.10    4.50
   1  -9   5   27.20    4.70
  -2   9  -5    4.20    2.90
   2  -9   5   -1.10    3.70
   6   8  -5   19.10    5.10
   6   8  -5   24.10    5.50
   6   8  -5   31.90    6.70
  -6  -8   5   26.20    6.20
   5   8  -5   31.50    5.40
   5   8  -5   24.70    5.10
   5   8  -5   32.10    6.10
  -5  -8   5   17.20    5.10
   4   8  -5   -2.10    2.90
   4   8  -5    1.60    3.00
   4   8  -5   -0.30    3.90
  -4  -8   5   -2.10    2.80
   3   8  -5   10.40    4.20
   3   8  -5    9.40    3.30
   3   8  -5   12.20    3.40
  -3  -8   5   11.90    3.20
   2   8  -5   69.09    6.40
   2   8  -5   49.80    6.70
   2   8  -5   60.19    6.10
  -2  -8   5   60.29    6.00
   1   8  -5   31.70    5.30
   1   8  -5   34.10    4.60
  -1  -8   5   38.60    4.90
   0   8  -5  113.79   10.00
   0   8  -5  106.69    7.40
   0  -8   5  100.69    7.10
   0  -8   5  105.69    7.10
  -1   8  -5   36.50    4.50
   1  -8   5   36.90    4.80
  -2   8  -5    2.00    2.20
   2  -8   5    4.70    3.20
  -3   8  -5    0.70    2.30
   3  -8   5    5.70    3.80
   7   7  -5   23.70    6.60
  -7  -7   5   27.90    6.70
  -7  -7   5   33.60    6.50
   6   7  -5   28.30    5.60
   6   7  -5   21.20    4.80
   6   7  -5   20.30    5.30
  -6  -7   5   25.10    5.40
   5   7  -5    9.40    3.50
   5   7  -5   11.20    3.80
   5   7  -5   12.00    4.10
  -5  -7   5    5.40    3.70
   4   7  -5  122.89    8.20
   4   7  -5  125.29    9.00
   4   7  -5  123.19    8.20
  -4  -7   5  123.59    8.80
   3   7  -5    6.50    3.30
   3   7  -5    5.80    2.50
   3   7  -5   11.70    3.00
  -3  -7   5    9.10    2.60
   2   7  -5   28.60    4.80
   2   7  -5   31.50    4.00
   2   7  -5   30.50    4.10
  -2  -7   5   44.40    4.80
   1   7  -5   65.99    5.20
   1   7  -5   66.79    6.50
   1   7  -5   64.19    5.70
  -1  -7   5   76.89    5.50
  -1  -7   5   76.19    5.70
   0   7  -5  113.99    7.20
   0   7  -5  126.19    9.10
   0  -7   5  129.19    7.50
   0  -7   5  119.59    7.20
  -1   7  -5   14.50    2.80
  -1   7  -5   21.60    4.50
   1  -7   5   20.80    3.50
   1  -7   5   18.30    3.20
  -2   7  -5   18.80    3.10
   2  -7   5   23.90    4.00
  -3   7  -5   17.30    3.20
   3  -7   5   22.10    4.20
  -4   7  -5    8.60    2.80
   4  -7   5    3.50    3.60
   7   6  -5    7.90    4.90
   7   6  -5   10.50    4.00
  -7  -6   5   11.00    3.90
   6   6  -5    1.10    3.70
   6   6  -5    1.80    3.30
  -6  -6   5    1.20    2.50
  -6  -6   5    5.90    3.90
  -5  -6   5   87.49    7.50
  -5  -6   5   78.89    7.00
   4   6  -5   14.20    3.30
   4   6  -5   15.00    3.20
   4   6  -5   18.00    3.50
  -4  -6   5   13.40    3.50
   3   6  -5   22.50    3.40
   3   6  -5   26.80    3.50
   3   6  -5   23.30    3.70
  -3  -6   5   24.30    3.70
   2   6  -5   52.29    4.90
   2   6  -5   53.09    4.90
   2   6  -5   53.09    5.40
  -2  -6   5   44.30    4.70
   1   6  -5   11.30    2.30
   1   6  -5   22.30    3.20
   1   6  -5   24.40    3.70
  -1  -6   5   20.30    3.00
  -1  -6   5   20.60    2.70
   0   6  -5   58.19    4.50
   0   6  -5   60.09    5.80
   0  -6   5   58.39    4.50
   0  -6   5   52.59    4.40
  -1   6  -5   27.30    4.40
  -1   6  -5   25.90    3.20
   1  -6   5   28.90    3.40
   1  -6   5   25.70    3.40
  -2   6  -5    6.20    3.70
  -2   6  -5    1.40    1.80
   2  -6   5    3.20    2.80
   2  -6   5    4.10    2.20
  -3   6  -5    8.40    2.50
   3  -6   5   14.50    3.40
  -4   6  -5    0.00    1.90
   4  -6   5    1.90    2.40
  -5   6  -5   11.40    3.10
   5  -6   5    4.50    2.70
   7   5  -5   53.39    6.50
   7   5  -5   61.69    7.40
  -7  -5   5   55.99    6.20
   6   5  -5   55.49    6.10
   6   5  -5   68.19    6.60
  -6  -5   5   53.19    5.70
  -6  -5   5   55.29    6.20
   5   5  -5   40.20    4.40
   5   5  -5   34.10    4.20
  -5  -5   5   38.30    4.70
  -5  -5   5   39.90    4.90
   4   5  -5   45.10    4.50
   4   5  -5   54.79    5.00
  -4  -5   5   53.69    5.10
  -4  -5   5   44.50    5.00
   3   5  -5  104.59    6.30
   3   5  -5  102.89    6.30
   3   5  -5   99.29    6.30
  -3  -5   5  101.09    6.60
   2   5  -5    5.30    2.20
   2   5  -5    8.60    2.00
   2   5  -5    7.30    1.90
  -2  -5   5    8.20    2.20
   1   5  -5  173.88    8.60
   1   5  -5  160.58    8.90
   1   5  -5  163.98    8.50
  -1  -5   5  172.78    8.30
  -1  -5   5  175.08    9.00
   0   5  -5  179.68    9.60
   0   5  -5  178.68    8.90
   0   5  -5  172.18    8.90
   0  -5   5  172.78    8.60
   0  -5   5  183.78    9.10
  -1   5  -5  161.28    9.10
  -1   5  -5  152.68    8.10
   1  -5   5  154.08    8.10
   1  -5   5  161.48    8.20
  -2   5  -5  132.09    8.50
  -2   5  -5  121.19    7.00
   2  -5   5  125.89    6.70
   2  -5   5  110.19    7.00
  -3   5  -5   35.00    3.80
   3  -5   5   41.00    4.40
  -4   5  -5   33.00    3.90
   4  -5   5   32.10    4.20
  -5   5  -5   13.00    2.90
   5  -5   5   15.20    3.40
  -6   5  -5    0.20    2.60
   6  -5   5   -6.50    2.70
   7   4  -5   30.20    5.50
   7   4  -5   33.10    5.40
  -7  -4   5   31.20    5.20
   6   4  -5   21.30    3.40
   6   4  -5   24.10    4.10
  -6  -4   5   20.80    4.30
   5   4  -5   85.99    6.20
   5   4  -5   94.39    6.00
  -5  -4   5   95.09    6.90
  -5  -4   5   90.19    6.70
   4   4  -5  198.18    9.40
   4   4  -5  164.68    8.80
  -4  -4   5  185.18    9.60
  -4  -4   5  180.98    9.70
   3   4  -5   36.70    3.40
   3   4  -5   34.60    3.40
  -3  -4   5   35.00    3.80
  -3  -4   5   31.30    3.60
   2   4  -5   12.70    2.00
   2   4  -5   14.30    2.20
   2   4  -5    7.40    1.80
  -2  -4   5    9.30    2.10
  -2  -4   5    9.90    1.70
   1   4  -5  143.09    7.00
   1   4  -5  127.39    6.80
   1   4  -5  115.19    6.70
  -1  -4   5  134.19    6.60
  -1  -4   5  137.59    7.20
   0   4  -5  159.68    8.10
   0   4  -5  166.08    8.10
   0   4  -5  167.48    8.50
   0  -4   5  192.98    8.80
   0  -4   5  179.88    9.00
  -1   4  -5   14.20    2.80
  -1   4  -5    9.70    1.90
   1  -4   5    9.20    1.90
   1  -4   5    7.90    1.80
  -2   4  -5   50.19    3.90
  -2   4  -5   59.09    5.40
   2  -4   5   49.90    3.70
   2  -4   5   45.90    4.00
  -3   4  -5  207.38   11.10
  -3   4  -5  182.68    9.50
  -3   4  -5  196.98    9.40
   3  -4   5  197.98   10.00
  -4   4  -5   42.50    4.00
   4  -4   5   47.40    4.60
  -5   4  -5    4.40    2.10
   5  -4   5    4.10    2.40
  -6   4  -5   11.60    2.70
   6  -4   5   14.60    3.70
   8   3  -5    2.50    4.00
   8   3  -5    1.20    5.70
  -8  -3   5    0.00    5.30
   7   3  -5   42.00    5.50
   7   3  -5   39.50    5.80
  -7  -3   5   48.00    6.00
   6   3  -5   87.19    6.50
   6   3  -5   86.79    6.20
  -6  -3   5   94.99    7.10
   5   3  -5   26.90    3.20
   5   3  -5   22.70    3.40
  -5  -3   5   32.60    4.00
  -5  -3   5   28.20    4.00
   4   3  -5  105.59    6.40
   4   3  -5  106.49    5.70
  -4  -3   5  106.49    6.50
  -4  -3   5  103.89    6.50
   3   3  -5  192.28    9.10
   3   3  -5  224.68    9.80
  -3  -3   5  200.58    9.40
  -3  -3   5  184.58    9.40
   2   3  -5   63.69    3.70
  -2  -3   5   57.29    4.20
  -2  -3   5   60.29    3.40
  -2  -3   5   53.49    4.00
   1   3  -5   10.80    1.60
   1   3  -5   10.00    1.70
   1   3  -5    7.90    1.20
   1   3  -5    8.10    1.60
  -1  -3   5    8.60    1.40
  -1  -3   5    7.60    1.80
   0   3  -5  185.88    8.70
   0   3  -5  182.38    8.60
   0   3  -5  185.48    8.80
   0  -3   5  201.58    9.30
   0  -3   5  211.58    9.60
  -1   3  -5  161.78    8.20
  -1   3  -5  157.58    7.70
   1  -3   5  167.98    8.20
   1  -3   5  176.28    8.20
  -2   3  -5   75.09    4.60
  -2   3  -5   86.59    5.60
   2  -3   5   79.09    4.70
   2  -3   5   88.59    5.00
  -3   3  -5   34.70    3.00
  -3   3  -5   37.70    3.40
  -3   3  -5   32.00    4.00
   3  -3   5   43.40    3.90
  -4   3  -5    2.60    1.50
   4  -3   5    6.20    2.00
  -5   3  -5    1.20    1.70
   5  -3   5   -2.30    1.60
  -6   3  -5   -0.40    1.80
   6  -3   5   -1.40    2.00
  -7   3  -5    3.10    2.70
   7  -3   5    6.50    3.40
   8   2  -5    8.10    4.50
   8   2  -5    9.20    5.90
  -8  -2   5    4.30    5.10
   7   2  -5    8.40    3.70
   7   2  -5    0.40    2.40
  -7  -2   5    0.30    3.00
   6   2  -5    1.40    2.10
   6   2  -5    4.40    2.10
  -6  -2   5    3.10    2.60
   5   2  -5   17.80    2.60
   5   2  -5   23.70    3.40
  -5  -2   5   20.40    3.30
   4   2  -5   27.40    3.30
   4   2  -5   26.80    2.50
  -4  -2   5   35.30    3.60
  -4  -2   5   33.70    3.60
   3   2  -5   52.69    3.30
   3   2  -5   62.39    4.00
   3   2  -5   59.49    3.10
  -3  -2   5   61.29    4.10
  -3  -2   5   59.59    4.10
  -3  -2   5   53.69    3.30
   2   2  -5  304.77   13.50
   2   2  -5  379.96   14.40
  -2  -2   5  332.37   13.30
  -2  -2   5  313.47   13.90
  -2  -2   5  312.77   13.80
   1   2  -5   26.60    2.00
   1   2  -5   29.50    1.90
   1   2  -5   22.20    1.90
   1   2  -5   20.10    2.20
   1   2  -5   26.00    2.40
  -1  -2   5   27.30    2.30
  -1  -2   5   28.00    2.80
   0   2  -5  153.08    6.90
   0   2  -5  141.99    6.80
   0   2  -5  143.39    6.90
   0  -2   5  153.08    7.20
   0  -2   5  148.49    7.00
  -1   2  -5   19.50    2.30
  -1   2  -5   16.70    1.90
   1  -2   5   18.00    2.10
   1  -2   5   19.70    2.10
  -2   2  -5  186.68    8.40
  -2   2  -5  187.38    8.50
  -2   2  -5  184.48    9.10
   2  -2   5  206.08    9.50
  -3   2  -5  378.96   16.20
  -3   2  -5  386.96   17.10
  -3   2  -5  380.76   16.00
   3  -2   5  407.26   17.50
  -4   2  -5   33.90    3.00
  -4   2  -5   26.60    2.80
   4  -2   5   28.40    3.10
  -5   2  -5    1.70    1.40
   5  -2   5    1.60    1.40
  -6   2  -5   12.40    2.50
   6  -2   5   14.80    3.10
  -7   2  -5   -1.30    1.90
   7  -2   5    3.10    4.10
   7   1  -5   11.80    4.00
   7   1  -5    8.80    3.00
  -7  -1   5   14.00    4.00
   6   1  -5   25.80    3.90
   6   1  -5   33.40    4.10
  -6  -1   5   33.00    4.40
   5   1  -5    7.00    2.00
   5   1  -5   10.00    2.20
  -5  -1   5    7.30    2.50
   4   1  -5    3.70    1.70
   4   1  -5    3.40    1.30
  -4  -1   5    5.40    1.80
  -4  -1   5    2.90    1.70
   3   1  -5   31.70    2.40
   3   1  -5   28.90    1.90
  -3  -1   5   33.90    3.40
  -3  -1   5   33.90    3.20
  -3  -1   5   38.90    3.30
  -2  -1   5   13.60    1.80
  -2  -1   5   12.40    1.80
  -2  -1   5   11.70    1.80
  -2  -1   5   14.70    1.60
  -1  -1   5  445.36   18.50
  -1  -1   5  442.36   18.80
  -1  -1   5  481.15   18.50
  -1  -1   5  441.56   18.60
   0   1  -5  373.76   15.50
   0   1  -5  393.86   15.70
   0   1  -5  385.16   15.70
   0   1  -5  367.16   15.50
   0  -1   5  445.66   17.10
   0  -1   5  421.36   17.60
   0  -1   5  405.06   17.50
  -1   1  -5  481.55   20.20
  -1   1  -5  500.85   20.00
   1  -1   5  497.55   20.90
   1  -1   5  520.75   20.90
  -2   1  -5   68.09    3.60
  -2   1  -5   67.09    4.40
  -2   1  -5   68.89    3.80
   2  -1   5   69.29    4.20
   2  -1   5   78.19    3.80
  -3   1  -5  117.99    6.70
  -3   1  -5  118.99    5.70
  -3   1  -5  110.89    5.70
   3  -1   5  124.29    6.00
   3  -1   5  117.19    6.30
  -4   1  -5  167.68    9.20
  -4   1  -5  168.18    7.80
  -4   1  -5  150.78    7.70
   4  -1   5  160.88    7.90
   4  -1   5  150.08    7.70
  -5   1  -5   13.00    2.10
   5  -1   5   17.40    2.60
  -6   1  -5   24.00    3.10
   6  -1   5   34.30    4.00
  -7   1  -5   25.40    3.50
   7   0  -5    9.40    3.10
   7   0  -5   12.20    4.20
  -7   0   5    9.00    3.60
   6   0  -5   18.50    3.80
   6   0  -5   23.60    3.70
  -6   0   5   25.10    4.00
   5   0  -5   82.59    5.50
   5   0  -5   81.59    5.90
  -5   0   5   87.19    6.00
   4   0  -5    0.40    1.10
   4   0  -5   -2.10    1.00
  -4   0   5    2.20    1.60
  -4   0   5    1.20    1.50
   3   0  -5   17.60    1.50
   3   0  -5   21.40    1.80
   3   0  -5   20.80    1.90
  -3   0   5   27.00    2.40
  -3   0   5   27.00    2.70
  -3   0   5   23.10    2.80
  -2   0   5   13.60    1.60
  -2   0   5   14.20    1.90
  -2   0   5   17.10    1.90
  -2   0   5   14.20    1.70
  -1   0   5  586.34   23.50
  -1   0   5  573.04   23.60
  -1   0   5  593.94   23.50
  -1   0   5  576.94   23.70
   0   0  -5   67.39    3.30
   0   0  -5   75.09    3.50
   0   0  -5   72.49    3.50
   0   0  -5   68.49    3.20
   0   0   5   83.89    4.10
   0   0   5   86.49    4.30
   0   0   5   80.09    4.20
  -1   0  -5  343.47   13.40
  -1   0  -5  316.67   13.70
  -1   0  -5  325.57   13.70
   1   0   5  340.57   14.50
   1   0   5  350.16   14.20
  -2   0  -5  192.88    8.90
  -2   0  -5  190.28    8.20
  -2   0  -5  198.58    8.50
   2   0   5  203.98    9.30
   2   0   5  214.98    9.10
  -3   0  -5  163.08    7.20
  -3   0  -5  160.98    8.20
  -3   0  -5  160.88    7.40
   3   0   5  158.68    7.50
   3   0   5  158.38    7.60
  -4   0  -5  148.29    8.50
  -4   0  -5  146.29    7.00
  -4   0  -5  153.58    7.30
   4   0   5  131.19    7.00
   4   0   5  147.09    7.30
  -5   0  -5   36.40    3.50
  -5   0  -5   33.30    3.30
   5   0   5   38.30    3.90
   5   0   5   36.90    3.60
  -6   0  -5    1.20    1.40
   6   0   5    0.80    2.20
   6   0   5    1.30    1.90
  -7   0  -5    2.80    1.90
  -8   0  -5   16.70    3.80
   7  -1  -5    7.70    4.80
   7  -1  -5    4.60    3.50
  -7   1   5    8.00    3.90
   6  -1  -5   30.40    4.40
   6  -1  -5   45.30    5.50
  -6   1   5   39.00    4.80
   5  -1  -5    3.90    1.80
   5  -1  -5    7.60    2.20
  -5   1   5    4.50    2.20
  -5   1   5    3.80    2.20
   4  -1  -5   29.30    2.80
   4  -1  -5   26.30    2.90
  -4   1   5   29.70    3.80
  -4   1   5   40.60    3.80
   3  -1  -5   35.60    2.60
   3  -1  -5   33.30    2.70
  -3   1   5   42.60    3.50
  -3   1   5   34.60    3.50
   2  -1  -5   53.39    3.10
   2  -1  -5   49.99    2.40
  -2   1   5   56.09    3.20
  -2   1   5   55.39    3.90
  -2   1   5   61.99    3.50
  -1   1   5  403.56   16.00
  -1   1   5  384.06   16.20
  -1   1   5  391.56   15.90
  -1   1   5  386.56   16.50
   0  -1  -5  768.02   30.30
   0  -1  -5  768.72   30.40
   0  -1  -5  770.82   30.60
   0   1   5  800.92   32.80
   0   1   5  827.92   32.70
   0   1   5  828.62   32.30
  -1  -1  -5  317.17   13.00
  -1  -1  -5  306.67   12.90
   1   1   5  329.37   14.10
   1   1   5  348.97   14.20
  -2  -1  -5  199.78    8.00
  -2  -1  -5  189.18    8.80
  -2  -1  -5  185.58    8.40
   2   1   5  199.48    9.00
   2   1   5  206.28    9.10
  -3  -1  -5  112.29    5.60
  -3  -1  -5  117.59    5.20
  -3  -1  -5  104.19    6.30
   3   1   5  111.09    5.60
   3   1   5  103.49    5.30
   3   1   5   95.09    6.50
  -4  -1  -5  225.48   10.90
  -4  -1  -5  206.28    9.50
  -4  -1  -5  221.98    9.90
   4   1   5  221.08    9.70
   4   1   5  199.38    9.90
  -5  -1  -5   34.80    3.40
  -5  -1  -5   26.80    2.80
   5   1   5   30.30    3.60
   5   1   5   38.00    3.40
  -6  -1  -5   15.00    2.50
   6   1   5   14.90    3.10
  -7  -1  -5   29.70    3.70
   7   1   5   45.90    5.40
  -8  -1  -5   39.60    5.40
   7  -2  -5    0.80    3.20
   7  -2  -5    1.60    4.80
  -7   2   5    0.90    4.20
   6  -2  -5    4.80    2.80
   6  -2  -5    6.30    3.80
  -6   2   5    8.70    3.20
   5  -2  -5   36.10    4.50
   5  -2  -5   32.00    3.40
  -5   2   5   39.90    4.40
  -5   2   5   44.60    4.80
   4  -2  -5   45.00    4.40
   4  -2  -5   45.20    3.70
  -4   2   5   48.40    4.30
  -4   2   5   53.29    4.30
   3  -2  -5   81.39    4.90
   3  -2  -5   83.39    4.60
  -3   2   5   90.79    5.70
  -3   2   5   95.79    5.20
   2  -2  -5    7.60    1.00
   2  -2  -5    9.10    1.50
   2  -2  -5    8.00    1.40
   2  -2  -5    8.40    1.50
  -2   2   5    9.50    1.80
  -2   2   5   10.50    1.60
   1  -2  -5  311.27   13.40
   1  -2  -5  339.67   13.50
   1  -2  -5  330.47   13.30
  -1   2   5  341.67   14.30
  -1   2   5  346.47   14.80
  -1   2   5  335.67   13.90
   0  -2  -5  966.40   37.60
   0  -2  -5  937.11   37.70
   0   2   5 1014.60   40.60
   0   2   5 1030.10   41.00
  -1  -2  -5 1743.53   67.79
  -1  -2  -5 1713.93   67.99
   1   2   5 1907.01   73.09
   1   2   5 1796.32   72.79
  -2  -2  -5  219.88    9.80
  -2  -2  -5  216.58    9.50
   2   2   5  240.08   10.50
   2   2   5  232.48   10.20
  -3  -2  -5   16.60    2.10
  -3  -2  -5   24.70    1.80
  -3  -2  -5   29.10    3.10
   3   2   5   21.20    2.10
   3   2   5   27.10    3.40
   3   2   5   21.70    2.60
  -4  -2  -5   46.40    3.60
  -4  -2  -5   56.89    5.00
  -4  -2  -5   53.29    3.20
   4   2   5   52.69    3.40
   4   2   5   55.79    4.20
  -5  -2  -5   10.30    1.80
  -5  -2  -5   14.40    2.60
   5   2   5   10.60    2.50
   5   2   5    7.50    1.70
  -6  -2  -5   29.30    3.60
  -6  -2  -5   20.50    2.80
   6   2   5   23.60    3.60
  -7  -2  -5   13.50    3.10
   7   2   5    6.10    2.90
   8   2   5   18.60    4.60
   7  -3  -5    7.80    6.10
   7  -3  -5    2.00    3.80
  -7   3   5    8.90    4.40
   6  -3  -5    3.60    3.10
   6  -3  -5    5.10    3.90
  -6   3   5    5.20    3.20
   5  -3  -5   66.59    5.20
   5  -3  -5   54.19    6.10
  -5   3   5   49.50    4.90
  -5   3   5   57.59    5.90
   4  -3  -5   77.19    4.80
   4  -3  -5   68.69    5.80
  -4   3   5   87.09    5.50
  -4   3   5   78.89    5.80
   3  -3  -5   92.99    5.90
   3  -3  -5   94.59    5.30
  -3   3   5   99.69    6.30
  -3   3   5   99.39    5.50
   2  -3  -5    7.60    1.40
   2  -3  -5   10.30    2.00
  -2   3   5   11.60    2.10
  -2   3   5   12.50    1.70
   1  -3  -5  174.68    8.30
   1  -3  -5  179.98    7.50
   1  -3  -5  181.68    8.20
  -1   3   5  193.98    8.10
  -1   3   5  181.98    9.00
   0  -3  -5  163.58    7.10
   0  -3  -5  164.48    7.60
   0   3   5  158.58    7.50
   0   3   5  170.28    6.90
   0   3   5  166.28    8.00
  -1  -3  -5   49.99    3.00
  -1  -3  -5   53.19    3.50
   1   3   5   49.90    3.40
   1   3   5   44.60    2.90
  -2  -3  -5  296.17   12.50
  -2  -3  -5  287.97   12.90
   2   3   5  287.57   12.30
   2   3   5  292.17   12.80
  -3  -3  -5   48.40    4.10
  -3  -3  -5   50.39    2.80
  -3  -3  -5   52.89    3.50
   3   3   5   49.60    3.60
   3   3   5   43.90    3.00
   3   3   5   52.09    4.60
  -4  -3  -5   87.09    4.60
  -4  -3  -5   82.19    5.10
  -4  -3  -5  100.99    6.30
   4   3   5   76.49    5.20
   4   3   5   88.09    4.50
  -5  -3  -5   12.20    2.50
  -5  -3  -5   10.30    1.90
   5   3   5    6.20    2.30
  -6  -3  -5   88.19    6.10
  -6  -3  -5   74.39    5.60
   6   3   5   76.09    6.10
  -7  -3  -5   13.50    4.10
   7   3   5   10.70    3.20
   8   3   5   14.90    4.20
   6  -4  -5    2.70    3.00
   6  -4  -5    5.90    4.80
   6  -4  -5    2.40    3.70
  -6   4   5   -1.30    2.50
  -6   4   5    1.80    3.00
   5  -4  -5    7.00    2.20
   5  -4  -5    2.70    3.80
  -5   4   5    2.10    2.10
  -5   4   5    6.20    2.70
   4  -4  -5    4.70    1.80
   4  -4  -5    5.40    2.90
  -4   4   5    2.90    1.70
  -4   4   5    6.70    2.40
   3  -4  -5   40.80    4.50
   3  -4  -5   48.60    4.00
  -3   4   5   53.39    4.00
  -3   4   5   54.79    4.50
   2  -4  -5    9.30    2.20
   2  -4  -5    8.70    1.70
  -2   4   5   10.80    1.80
  -2   4   5    8.80    2.00
   1  -4  -5  756.92   29.10
   1  -4  -5  721.43   30.20
   1  -4  -5  716.63   29.80
  -1   4   5  783.82   32.30
  -1   4   5  779.22   31.20
   0  -4  -5  454.45   17.50
   0  -4  -5  406.26   17.80
   0  -4  -5  418.66   18.30
   0   4   5  424.86   16.80
   0   4   5  412.16   18.00
  -1  -4  -5  251.47   11.40
  -1  -4  -5  246.78   10.70
   1   4   5  213.58    9.40
   1   4   5  211.78    9.90
  -2  -4  -5   87.99    4.80
  -2  -4  -5   89.89    5.50
   2   4   5   79.69    4.80
   2   4   5   82.19    4.20
  -3  -4  -5  120.49    7.00
  -3  -4  -5  122.29    6.30
   3   4   5  112.89    5.40
   3   4   5  106.89    6.30
   3   4   5  119.49    7.70
  -4  -4  -5   39.80    4.50
  -4  -4  -5   41.40    3.70
   4   4   5   40.00    2.80
   4   4   5   38.80    3.90
  -5  -4  -5   49.20    4.40
   5   4   5   48.20    4.70
  -6  -4  -5   25.00    3.70
   6   4   5   27.30    4.30
  -7  -4  -5    0.30    2.70
   7   4   5    0.10    2.60
   8   4   5   16.00    4.50
   6  -5  -5   -0.40    2.90
   6  -5  -5    3.40    5.70
  -6   5   5    0.70    3.30
  -6   5   5    3.90    3.30
   5  -5  -5    7.00    4.70
   5  -5  -5    3.10    2.40
  -5   5   5    4.10    2.90
  -5   5   5    7.70    3.20
   4  -5  -5   18.60    2.90
   4  -5  -5   16.00    4.40
  -4   5   5   19.40    3.50
  -4   5   5   20.60    3.30
   3  -5  -5   46.60    4.20
   3  -5  -5   52.19    5.50
  -3   5   5   52.09    4.20
  -3   5   5   60.29    5.50
   2  -5  -5  143.19    7.40
   2  -5  -5  144.09    8.60
  -2   5   5  161.48    7.60
  -2   5   5  152.48    8.50
   1  -5  -5   55.79    4.80
   1  -5  -5   63.39    4.00
  -1   5   5   64.89    3.70
  -1   5   5   55.19    4.40
   0  -5  -5   26.60    2.30
   0  -5  -5   20.40    2.20
   0  -5  -5   25.00    3.30
   0   5   5   26.10    2.00
   0   5   5   23.20    2.90
  -1  -5  -5    6.20    1.40
  -1  -5  -5    3.80    1.20
  -1  -5  -5    3.30    1.90
   1   5   5    4.60    1.00
   1   5   5    4.00    1.50
  -2  -5  -5   44.50    3.40
  -2  -5  -5   47.60    4.40
   2   5   5   41.60    3.90
   2   5   5   44.00    2.90
  -3  -5  -5   -0.20    1.80
  -3  -5  -5    0.40    1.20
   3   5   5    2.30    1.40
   3   5   5    1.70    1.00
  -4  -5  -5   48.50    4.30
   4   5   5   30.50    3.40
  -5  -5  -5  102.09    6.50
   5   5   5   77.79    5.90
  -6  -5  -5  180.38   10.00
   6   5   5  153.58    9.40
  -7  -5  -5   60.39    6.20
   7   5   5   39.50    5.30
  -8  -5  -5   13.30    5.30
   8   5   5    5.70    3.70
   5  -6  -5    0.90    5.00
   5  -6  -5    2.30    2.60
  -5   6   5    2.00    2.50
  -5   6   5    0.70    3.00
   4  -6  -5   19.20    3.20
   4  -6  -5   14.50    4.80
  -4   6   5   11.20    2.80
  -4   6   5   16.60    3.40
   3  -6  -5   16.90    4.30
   3  -6  -5   18.30    2.90
  -3   6   5   14.10    2.70
  -3   6   5   14.30    2.80
   2  -6  -5   -1.70    2.20
   2  -6  -5   -2.00    1.10
  -2   6   5    2.40    1.60
  -2   6   5    0.80    1.60
   1  -6  -5    7.50    2.80
   1  -6  -5   10.10    2.10
  -1   6   5    8.10    1.70
  -1   6   5    5.50    2.00
   0  -6  -5   47.10    5.20
   0  -6  -5   49.10    3.60
   0  -6  -5   48.90    3.60
   0   6   5   46.30    4.30
   0   6   5   46.40    3.20
  -1  -6  -5  117.99    6.20
  -1  -6  -5  138.99    7.90
  -1  -6  -5  118.89    6.30
   1   6   5  104.19    6.30
  -2  -6  -5  196.68   10.30
  -2  -6  -5  177.18    8.90
  -2  -6  -5  189.68    8.60
   2   6   5  161.28    8.60
  -3  -6  -5    5.70    1.80
  -3  -6  -5    9.00    1.70
  -3  -6  -5    5.00    2.60
   3   6   5    8.20    2.00
  -4  -6  -5   26.70    3.20
   4   6   5   25.60    3.40
  -5  -6  -5    9.90    2.70
   5   6   5    6.30    2.40
  -6  -6  -5    5.20    3.00
   6   6   5    4.50    2.60
  -7  -6  -5   37.00    5.20
   7   6   5   24.10    4.50
  -8  -6  -5    9.80    4.50
   8   6   5    1.80    3.50
   5  -7  -5    5.50    3.20
   5  -7  -5    2.40    6.20
  -5   7   5    3.20    3.50
  -5   7   5    3.00    3.60
   4  -7  -5    4.40    2.70
   4  -7  -5    1.80    5.10
  -4   7   5    0.40    2.60
  -4   7   5   10.70    3.10
   3  -7  -5   18.50    3.10
   3  -7  -5   21.80    5.50
  -3   7   5   19.10    3.30
  -3   7   5   26.30    4.00
   2  -7  -5    0.80    1.70
   2  -7  -5    1.70    3.60
  -2   7   5    1.90    1.80
  -2   7   5    2.50    1.80
   1  -7  -5   28.40    3.50
   1  -7  -5   45.20    5.70
  -1   7   5   29.90    3.80
  -1   7   5   31.80    3.10
   0  -7  -5   91.39    7.20
   0  -7  -5   86.39    5.50
   0   7   5   75.29    5.40
  -1  -7  -5  283.97   14.10
  -1  -7  -5  255.07   12.20
  -1  -7  -5  282.67   12.40
   1   7   5  242.68   11.90
  -2  -7  -5  394.26   16.50
  -2  -7  -5  386.66   17.00
  -2  -7  -5  377.86   18.30
   2   7   5  320.17   15.00
  -3  -7  -5  165.48    8.50
  -3  -7  -5  155.38    7.70
   3   7   5  123.09    7.20
  -4  -7  -5   23.80    3.30
   4   7   5   18.30    3.20
  -5  -7  -5  129.39    8.30
   5   7   5  106.99    7.30
  -6  -7  -5  211.08   11.70
   6   7   5  170.58   10.20
  -7  -7  -5  116.19    9.20
   7   7   5   69.39    7.30
  -8  -7  -5   10.70    5.00
   8   7   5    1.80    3.90
   4  -8  -5   14.00    7.90
   4  -8  -5   16.60    3.70
  -4   8   5    9.70    3.80
  -4   8   5   19.50    4.70
   3  -8  -5   25.20    6.60
   3  -8  -5   20.20    3.50
  -3   8   5   20.10    3.90
  -3   8   5   19.20    4.70
   2  -8  -5   45.70    4.70
   2  -8  -5   49.99    6.80
  -2   8   5   56.39    5.60
  -2   8   5   29.40    6.20
   1  -8  -5    0.40    3.70
   1  -8  -5   -0.70    1.80
  -1   8   5    1.00    1.80
   0  -8  -5   85.49    7.90
   0  -8  -5   77.09    5.50
   0   8   5   79.79    5.80
  -1  -8  -5   78.79    7.50
  -1  -8  -5   64.69    5.30
  -1  -8  -5   67.29    4.70
   1   8   5   60.59    4.90
  -2  -8  -5  545.05   22.80
  -2  -8  -5  539.95   23.30
   2   8   5  404.96   18.60
  -3  -8  -5   23.40    3.30
   3   8   5   10.70    2.60
  -4  -8  -5  107.19    7.00
   4   8   5   74.49    5.70
  -5  -8  -5    2.60    2.20
   5   8   5   -0.70    1.60
  -6  -8  -5   26.10    4.70
   6   8   5   23.10    4.10
  -7  -8  -5   26.20    5.30
   7   8   5   16.30    4.20
  -8  -8  -5   12.20    5.50
   8   8   5   11.30    4.30
   3  -9  -5   28.70    4.90
   2  -9  -5    3.60    3.00
  -2   9   5    4.50    3.00
   1  -9  -5   28.00    4.10
  -1   9   5   29.80    4.40
   0  -9  -5   35.40    4.10
   0   9   5   34.00    4.50
  -1  -9  -5   88.49    6.00
   1   9   5   76.19    6.00
  -2  -9  -5  188.68    9.60
  -2  -9  -5  195.38   10.20
   2   9   5  140.79    8.50
  -3  -9  -5    1.00    2.00
   3   9   5   -1.50    1.50
  -4  -9  -5    8.00    2.70
   4   9   5    2.60    2.30
  -5  -9  -5   27.70    4.20
   5   9   5   35.20    5.20
  -6  -9  -5   91.89    8.10
   6   9   5   67.69    7.10
  -7  -9  -5   30.30    6.00
   7   9   5   35.20    5.80
   2 -10  -5   31.40    5.20
   1 -10  -5   21.50    4.20
  -1  10   5   19.70    6.80
   0 -10  -5    0.70    2.70
   0  10   5   -0.10    2.60
  -1 -10  -5    9.50    2.90
   1  10   5    4.90    2.70
  -2 -10  -5   13.50    5.50
   2  10   5   14.00    3.50
  -3 -10  -5   21.30    4.00
   3  10   5   12.70    3.30
  -4 -10  -5    9.90    3.30
   4  10   5    8.50    3.00
  -5 -10  -5    6.50    3.10
   5  10   5    4.60    2.50
  -6 -10  -5   14.30    3.90
   6  10   5    1.90    2.70
  -7 -10  -5    5.90    5.30
   7  10   5    3.20    3.70
   1 -11  -5   35.20    5.60
   0 -11  -5  108.69    8.50
  -1 -11  -5   13.00    4.20
   1  11   5   15.50    6.50
   2  11   5   30.20    4.90
  -3 -11  -5   16.60    4.40
   3  11   5    6.00    3.30
  -4 -11  -5   -2.10    2.80
   4  11   5    1.60    2.60
  -5 -11  -5   18.80    4.70
   5  11   5   15.60    4.30
  -6 -11  -5   10.70    4.70
   6  11   5    7.60    3.90
  -4 -12  -5    4.20    4.50
   4  12   5    8.50    4.80
   3  10  -6   31.20    6.20
   3  10  -6   36.80    8.10
   3  10  -6   35.10    6.60
  -3 -10   6   27.60    5.40
   2  10  -6    3.30    5.60
   2  10  -6    2.20    4.30
  -2 -10   6   -3.90    3.10
   1  10  -6    1.90    8.40
   1  10  -6   -5.20    3.80
  -1 -10   6    0.20    3.40
   5   9  -6    1.30    6.50
   5   9  -6    3.60    4.90
   5   9  -6    5.80    5.00
  -5  -9   6    1.70    5.50
   4   9  -6    6.20    4.10
   4   9  -6    8.00    5.90
   4   9  -6    6.20    4.20
  -4  -9   6    9.20    4.30
   3   9  -6   -0.70    3.60
   3   9  -6   -4.30    4.30
   3   9  -6    5.60    4.00
  -3  -9   6    0.90    2.60
   2   9  -6   -0.10    3.20
   2   9  -6   -1.50    3.30
   2   9  -6    1.00    4.30
  -2  -9   6    3.00    3.10
   1   9  -6   23.90    4.20
   1   9  -6   17.20    5.70
  -1  -9   6   17.80    4.00
   0   9  -6   39.50    5.10
   0   9  -6   40.60    8.30
   0  -9   6   43.60    5.60
  -1   9  -6   18.50    3.90
   1  -9   6   25.50    5.00
   2  -9   6    8.50    4.40
   6   8  -6   28.30    6.30
   6   8  -6   34.90    6.60
   6   8  -6   38.70    7.30
  -6  -8   6   32.20    6.70
   5   8  -6   12.30    4.40
   5   8  -6   14.30    4.60
   5   8  -6   13.30    5.30
  -5  -8   6   13.90    5.10
   4   8  -6   21.20    5.30
   4   8  -6   12.70    4.20
   4   8  -6   20.70    4.70
  -4  -8   6   15.30    4.50
   3   8  -6   21.70    3.90
   3   8  -6   26.50    5.40
   3   8  -6   19.30    3.80
  -3  -8   6   21.50    4.00
   2   8  -6   60.29    6.20
   2   8  -6   54.29    7.00
   2   8  -6   53.89    5.90
  -2  -8   6   44.30    5.40
   1   8  -6   54.89    6.90
   1   8  -6   58.79    5.90
  -1  -8   6   42.30    5.00
   0   8  -6   21.50    3.80
   0   8  -6   18.80    5.10
   0  -8   6   24.80    3.90
   0  -8   6   23.20    3.80
  -1   8  -6   30.90    4.20
   1  -8   6   34.30    4.70
  -2   8  -6    8.00    2.70
   2  -8   6   14.70    3.90
  -3   8  -6    4.20    3.00
   3  -8   6    6.70    3.70
   6   7  -6   22.90    5.70
   6   7  -6   29.80    5.90
   6   7  -6   29.40    6.00
  -6  -7   6   31.90    6.30
   5   7  -6   24.20    5.00
   5   7  -6   26.90    4.70
   5   7  -6   26.70    4.80
  -5  -7   6   31.10    5.50
   4   7  -6   12.20    3.90
   4   7  -6    7.30    2.80
   4   7  -6   18.40    3.40
  -4  -7   6   10.00    3.80
   3   7  -6   11.40    3.00
   3   7  -6    8.90    2.80
   3   7  -6   13.30    3.90
  -3  -7   6    6.80    3.00
   2   7  -6  190.08   10.50
   2   7  -6  189.58   11.40
   2   7  -6  188.78   10.40
  -2  -7   6  177.38   10.10
   1   7  -6   84.49    6.10
   1   7  -6   75.19    5.90
   1   7  -6   87.29    7.70
  -1  -7   6   90.09    6.50
   0   7  -6   25.80    4.90
   0   7  -6   23.70    3.60
   0  -7   6   19.70    3.40
   0  -7   6   24.50    3.60
  -1   7  -6   14.60    3.00
  -1   7  -6   18.70    4.50
   1  -7   6   20.70    3.50
   1  -7   6   18.30    3.40
  -2   7  -6   12.40    2.90
   2  -7   6   14.00    3.50
  -3   7  -6    1.40    2.30
   3  -7   6    2.70    3.10
  -4   7  -6    1.00    2.80
   4  -7   6    2.00    3.60
   7   6  -6   34.60    6.80
  -7  -6   6   35.90    6.20
   6   6  -6   20.50    4.40
  -6  -6   6   21.00    5.10
  -6  -6   6   17.40    5.20
   5   6  -6   71.89    6.60
   5   6  -6   62.89    6.40
   5   6  -6   71.89    6.60
  -5  -6   6   61.49    6.50
   4   6  -6   31.60    4.20
   4   6  -6   29.50    4.00
   4   6  -6   29.90    4.10
  -4  -6   6   24.70    4.30
   3   6  -6   45.40    5.00
   3   6  -6   47.20    4.80
   3   6  -6   57.69    5.30
  -3  -6   6   57.89    5.80
   2   6  -6    5.80    2.20
   2   6  -6    5.20    2.50
   2   6  -6    7.40    2.20
  -2  -6   6    4.40    2.10
   1   6  -6   45.40    4.40
   1   6  -6   44.90    5.20
   1   6  -6   43.20    4.30
  -1  -6   6   50.59    4.20
  -1  -6   6   46.70    4.80
   0   6  -6   79.49    5.50
   0   6  -6   78.59    7.00
   0  -6   6   73.59    5.40
   0  -6   6   80.49    5.60
  -1   6  -6   20.80    4.10
  -1   6  -6   17.30    3.00
   1  -6   6   17.00    3.00
   1  -6   6   17.00    3.00
  -2   6  -6    1.70    1.70
  -2   6  -6   -0.90    3.20
   2  -6   6    1.20    2.20
   2  -6   6   -0.50    2.00
  -3   6  -6    8.40    2.60
   3  -6   6    8.70    3.10
  -4   6  -6    3.80    2.20
   4  -6   6    4.80    2.40
  -5   6  -6   15.30    3.70
   5  -6   6   12.50    3.90
   7   5  -6    9.90    3.70
   7   5  -6   22.00    4.90
  -7  -5   6   14.70    5.20
   6   5  -6   10.40    3.10
   6   5  -6   12.00    4.00
  -6  -5   6   11.80    4.20
  -6  -5   6    7.10    3.80
   5   5  -6   24.30    3.60
  -5  -5   6   24.90    4.30
  -5  -5   6   22.20    4.10
  -4  -5   6   15.70    3.30
  -4  -5   6   14.10    3.60
   3   5  -6   43.20    4.10
   3   5  -6   43.50    4.20
   3   5  -6   35.60    3.90
  -3  -5   6   38.70    4.50
   2   5  -6  228.78   11.00
   2   5  -6  219.98   11.10
   2   5  -6  221.78   11.00
  -2  -5   6  223.98   11.30
   1   5  -6  122.79    7.20
   1   5  -6  128.19    7.20
   1   5  -6  136.19    7.80
  -1  -5   6  138.09    7.20
  -1  -5   6  138.19    7.70
   0   5  -6   30.00    4.10
   0   5  -6   29.00    3.40
   0   5  -6   34.90    3.60
   0  -5   6   35.20    3.40
   0  -5   6   36.10    3.90
  -1   5  -6   64.99    4.80
  -1   5  -6   74.49    6.00
   1  -5   6   79.09    5.30
   1  -5   6   67.99    4.90
  -2   5  -6   49.70    5.80
  -2   5  -6   59.99    4.50
   2  -5   6   54.39    4.20
   2  -5   6   53.99    4.90
  -3   5  -6   27.10    3.40
   3  -5   6   35.70    4.20
  -4   5  -6   31.00    3.80
   4  -5   6   30.20    4.00
  -5   5  -6    3.30    2.20
   5  -5   6   -0.20    2.30
   7   4  -6   37.10    5.20
   7   4  -6   37.90    5.50
  -7  -4   6   32.10    5.90
   6   4  -6    3.60    2.30
   6   4  -6    6.50    2.80
  -6  -4   6    5.30    3.50
   5   4  -6   11.30    2.80
   5   4  -6   12.80    2.60
  -5  -4   6   14.00    3.40
  -5  -4   6   14.40    3.40
   4   4  -6   76.09    5.00
   4   4  -6   85.89    5.80
  -4  -4   6   71.79    6.10
  -4  -4   6   74.59    5.90
  -3  -4   6   15.80    3.00
  -3  -4   6   21.80    3.10
   2   4  -6   77.89    4.90
   2   4  -6   60.89    4.60
   2   4  -6   74.59    4.60
  -2  -4   6   83.99    4.70
  -2  -4   6   82.89    5.60
   1   4  -6   68.99    4.60
   1   4  -6   61.19    4.50
   1   4  -6   72.59    4.80
  -1  -4   6   68.79    4.90
  -1  -4   6   78.19    4.50
   0   4  -6   -0.50    1.30
   0   4  -6   -0.50    1.50
   0   4  -6    0.80    1.30
   0  -4   6   -0.50    1.30
   0  -4   6    0.20    1.30
  -1   4  -6  198.98   10.20
  -1   4  -6  198.58    9.70
   1  -4   6  187.08    9.40
   1  -4   6  203.38    9.60
  -2   4  -6  169.98    9.30
  -2   4  -6  152.38    8.10
   2  -4   6  183.68    9.00
   2  -4   6  163.18    8.50
  -3   4  -6   11.60    2.20
  -3   4  -6   10.10    2.30
  -3   4  -6    9.90    3.40
   3  -4   6    7.60    2.10
  -4   4  -6   13.20    2.40
   4  -4   6   15.90    2.80
  -5   4  -6   16.30    2.80
   5  -4   6   15.80    3.20
  -6   4  -6   20.70    3.60
   6  -4   6   32.60    4.70
   7   3  -6    6.00    3.00
   7   3  -6    8.80    3.30
  -7  -3   6    7.40    3.90
   6   3  -6   21.90    3.90
   6   3  -6   22.30    3.50
  -6  -3   6   25.80    4.40
   5   3  -6   24.40    3.70
   5   3  -6   28.10    3.20
  -5  -3   6   23.30    3.80
  -5  -3   6   32.00    4.20
   4   3  -6   86.49    5.00
   4   3  -6   89.69    5.80
  -4  -3   6  102.69    6.70
  -4  -3   6  104.99    6.70
   3   3  -6  375.96   15.50
   3   3  -6  339.57   14.90
  -3  -3   6  352.86   16.00
  -3  -3   6  369.76   16.20
   2   3  -6  197.98   10.00
   2   3  -6  202.48    9.90
   2   3  -6  209.28    9.40
   2   3  -6  224.98    9.50
  -2  -3   6  202.48   10.30
  -2  -3   6  223.88    9.60
   1   3  -6  141.19    7.10
   1   3  -6  143.09    7.20
   1   3  -6  141.59    7.00
  -1  -3   6  158.88    7.60
  -1  -3   6  162.68    8.10
   0   3  -6  180.08    8.60
   0   3  -6  176.38    8.40
   0   3  -6  166.78    8.40
   0  -3   6  167.48    8.30
   0  -3   6  170.88    8.10
  -1   3  -6  303.57   13.60
  -1   3  -6  291.67   13.20
   1  -3   6  298.47   13.40
   1  -3   6  309.47   13.50
  -2   3  -6   95.69    5.50
  -2   3  -6  103.39    6.40
   2  -3   6  109.59    6.30
   2  -3   6  114.69    6.10
  -3   3  -6  308.47   14.30
  -3   3  -6  278.07   12.70
  -3   3  -6  282.47   12.90
   3  -3   6  314.37   14.40
  -4   3  -6   51.29    4.10
   4  -3   6   57.29    5.00
  -5   3  -6    7.60    2.20
   5  -3   6   16.20    3.10
  -6   3  -6    4.00    2.10
   6  -3   6    1.00    2.50
   7   2  -6   24.40    4.20
   7   2  -6   30.00    4.80
  -7  -2   6   37.50    5.80
   6   2  -6   -1.40    1.80
   6   2  -6    0.50    1.80
  -6  -2   6    0.00    2.70
   5   2  -6   24.50    3.60
   5   2  -6   22.20    2.70
  -5  -2   6   26.20    3.80
   4   2  -6  268.27   12.20
   4   2  -6  240.98   10.90
  -4  -2   6  263.37   12.30
  -4  -2   6  259.17   12.40
   3   2  -6   87.39    5.30
  -3  -2   6   99.29    5.90
  -3  -2   6   92.89    5.00
  -3  -2   6   93.59    5.60
   2   2  -6   10.10    1.70
  -2  -2   6   18.20    2.40
  -2  -2   6   13.20    2.20
  -2  -2   6   15.50    1.80
   1   2  -6   60.29    3.90
   1   2  -6   65.39    3.60
   1   2  -6   56.49    3.90
   1   2  -6   76.59    3.60
  -1  -2   6   75.29    3.80
  -1  -2   6   59.99    4.20
  -1  -2   6   71.39    4.00
   0   2  -6   14.70    1.80
   0   2  -6   12.80    1.90
   0   2  -6   12.50    1.90
   0  -2   6   15.70    2.10
   0  -2   6   15.10    1.90
  -1   2  -6   24.70    2.80
  -1   2  -6   22.80    2.40
   1  -2   6   22.10    2.50
   1  -2   6   22.60    2.40
  -2   2  -6   17.10    2.60
  -2   2  -6   18.10    2.10
  -2   2  -6   22.10    2.30
   2  -2   6   23.90    2.70
  -3   2  -6   19.10    2.30
  -3   2  -6   18.50    3.20
  -3   2  -6   13.90    2.10
   3  -2   6   16.60    2.60
  -4   2  -6   62.89    4.20
  -4   2  -6   50.19    3.80
   4  -2   6   54.99    4.60
  -5   2  -6    5.80    1.90
   5  -2   6    6.60    2.30
  -6   2  -6    7.60    2.40
   6  -2   6    9.30    2.90
  -7   2  -6    0.70    2.20
   7  -2   6    1.40    3.60
   7   1  -6   27.10    4.20
   7   1  -6   25.00    4.60
  -7  -1   6   26.40    4.90
   6   1  -6   12.00    2.70
   6   1  -6   12.40    3.10
  -6  -1   6   12.50    3.40
   5   1  -6   24.50    3.00
   5   1  -6   20.90    3.20
  -5  -1   6   27.40    3.80
   4   1  -6  136.79    7.60
   4   1  -6  131.89    6.50
  -4  -1   6  157.78    8.50
  -4  -1   6  160.08    8.40
  -3  -1   6   40.10    3.00
  -3  -1   6   48.10    3.90
  -3  -1   6   39.50    3.50
  -3  -1   6   48.40    3.80
  -2  -1   6   41.90    2.90
  -2  -1   6   46.10    3.70
  -2  -1   6   40.20    3.20
  -2  -1   6   47.30    3.30
  -1  -1   6  218.38   10.40
  -1  -1   6  232.58   10.20
  -1  -1   6  234.28   10.40
  -1  -1   6  246.08   10.20
   0   1  -6   90.29    4.80
   0   1  -6  103.69    5.00
   0   1  -6  107.49    5.00
   0   1  -6  100.19    5.00
   0  -1   6  108.79    5.70
   0  -1   6  106.29    5.50
   0  -1   6  115.49    5.10
  -1   1  -6  112.89    5.40
  -1   1  -6  112.79    5.70
   1  -1   6  130.39    5.50
   1  -1   6  121.49    6.10
   1  -1   6  115.59    6.10
  -2   1  -6   43.90    3.00
  -2   1  -6   44.00    3.60
  -2   1  -6   41.10    2.80
   2  -1   6   46.10    3.30
   2  -1   6   47.50    3.00
  -3   1  -6  146.59    7.00
  -3   1  -6  138.49    6.80
  -3   1  -6  145.89    7.90
   3  -1   6  145.79    7.40
  -4   1  -6   22.10    2.50
  -4   1  -6   30.70    2.90
  -4   1  -6   27.60    3.90
   4  -1   6   26.10    3.00
  -5   1  -6   12.20    3.30
  -5   1  -6   13.20    2.20
   5  -1   6   12.80    2.50
  -6   1  -6   13.40    2.60
   6  -1   6   20.20    3.30
  -7   1  -6   12.70    2.90
   7   0  -6    9.90    3.20
   7   0  -6    4.50    3.90
  -7   0   6    8.40    4.00
   6   0  -6   10.20    2.90
   6   0  -6    6.30    2.40
  -6   0   6    9.80    3.20
   5   0  -6   20.80    3.40
   5   0  -6   29.10    3.30
  -5   0   6   33.40    4.00
   4   0  -6    2.90    1.30
   4   0  -6    1.20    1.40
  -4   0   6    3.10    1.80
  -4   0   6    6.40    2.20
   3   0  -6    7.80    1.40
  -3   0   6    7.40    1.80
  -3   0   6    8.60    1.90
  -3   0   6    7.90    1.60
  -2   0   6  159.68    7.30
  -2   0   6  153.38    7.70
  -2   0   6  154.28    7.40
  -2   0   6  164.48    7.50
  -1   0   6    0.10    0.90
  -1   0   6    0.50    1.00
  -1   0   6    0.10    0.80
  -1   0   6    1.50    1.00
   0   0  -6  225.68    9.90
   0   0  -6  259.47   10.20
   0   0  -6  254.97   10.20
   0   0  -6  225.48   10.00
   0   0   6  272.47   11.70
   0   0   6  260.57   11.70
   0   0   6  282.07   11.60
  -1   0  -6  302.27   13.20
  -1   0  -6  329.17   12.90
  -1   0  -6  305.27   13.20
   1   0   6  324.57   14.30
   1   0   6  344.87   13.90
  -2   0  -6    7.80    1.40
  -2   0  -6    6.40    1.10
  -2   0  -6    6.20    1.50
   2   0   6    7.20    1.30
   2   0   6    5.10    1.30
  -3   0  -6  169.38    8.50
  -3   0  -6  165.88    7.50
  -3   0  -6  161.88    7.70
   3   0   6  173.88    8.40
   3   0   6  178.38    8.20
  -4   0  -6  825.12   33.10
  -4   0  -6  832.52   34.20
  -4   0  -6  787.02   32.80
   4   0   6  817.62   34.80
   4   0   6  885.61   34.90
  -5   0  -6   85.09    5.30
  -5   0  -6   66.09    4.60
   5   0   6   77.59    7.40
   5   0   6   75.69    5.00
  -6   0  -6   18.90    2.70
   6   0   6   28.20    3.70
  -7   0  -6    8.60    2.80
   7  -1  -6   39.90    6.00
   7  -1  -6   52.59    7.00
  -7   1   6   50.49    6.20
   6  -1  -6   39.00    5.00
   6  -1  -6   36.60    4.80
  -6   1   6   28.40    4.60
   5  -1  -6    5.80    2.10
  -5   1   6    8.10    2.60
  -5   1   6    1.30    2.10
   4  -1  -6   69.59    4.30
   4  -1  -6   63.09    4.40
  -4   1   6   63.19    5.20
  -4   1   6   66.79    4.90
   3  -1  -6    2.00    1.10
   3  -1  -6    3.20    1.30
  -3   1   6    3.30    1.50
  -3   1   6    3.10    1.50
  -2   1   6   41.80    3.40
  -2   1   6   42.30    2.80
  -2   1   6   42.10    2.90
  -2   1   6   39.40    2.90
  -1   1   6   81.89    4.70
  -1   1   6   82.29    4.30
  -1   1   6   82.69    4.20
  -1   1   6   80.69    4.30
   0  -1  -6  492.75   20.80
   0  -1  -6  542.75   20.60
   0  -1  -6  485.15   20.50
   0  -1  -6  535.25   20.60
   0   1   6  526.45   21.50
   0   1   6  521.65   21.50
  -1  -1  -6   33.90    2.40
  -1  -1  -6   33.60    1.90
  -1  -1  -6   34.60    2.40
   1   1   6   36.80    2.70
   1   1   6   33.80    2.60
  -2  -1  -6  364.16   15.50
  -2  -1  -6  373.56   15.00
  -2  -1  -6  379.86   15.90
   2   1   6  407.16   16.90
   2   1   6  397.26   16.80
  -3  -1  -6   69.49    3.70
  -3  -1  -6   77.69    5.00
  -3  -1  -6   74.29    4.30
   3   1   6   71.99    4.40
   3   1   6   69.59    4.10
  -4  -1  -6   17.40    2.00
  -4  -1  -6   16.90    2.40
  -4  -1  -6   16.80    3.10
   4   1   6   13.10    2.30
   4   1   6   11.90    1.90
  -5  -1  -6   70.09    4.50
  -5  -1  -6   77.99    5.20
   5   1   6   77.79    5.10
   5   1   6   85.89    5.90
  -6  -1  -6   23.00    3.70
  -6  -1  -6   15.60    2.70
   6   1   6   19.50    3.40
   6   1   6   17.10    3.60
   7  -2  -6    4.80    3.90
   7  -2  -6    2.00    4.70
  -7   2   6    2.70    4.10
   6  -2  -6    1.70    2.80
   6  -2  -6    6.60    3.80
  -6   2   6    3.70    3.10
   5  -2  -6    6.10    2.30
   5  -2  -6    5.00    2.30
  -5   2   6    5.20    2.40
  -5   2   6    7.20    2.80
   4  -2  -6   29.60    3.40
   4  -2  -6   35.40    3.40
  -4   2   6   29.70    3.80
  -4   2   6   28.30    3.50
   3  -2  -6    2.50    1.20
   3  -2  -6    5.00    1.50
  -3   2   6    5.40    1.70
  -3   2   6    5.30    1.90
   2  -2  -6   66.59    3.40
   2  -2  -6   64.99    3.70
   2  -2  -6   63.99    4.00
  -2   2   6   74.29    4.20
  -2   2   6   69.39    4.80
   1  -2  -6  368.36   14.30
   1  -2  -6  344.47   14.10
   1  -2  -6  320.27   14.00
  -1   2   6  368.16   15.10
  -1   2   6  381.76   16.10
  -1   2   6  358.26   15.50
   0  -2  -6   44.10    2.70
   0  -2  -6   45.40    3.10
   0  -2  -6   46.60    2.70
   0   2   6   46.50    3.40
   0   2   6   50.09    3.20
   0   2   6   49.90    2.60
  -1  -2  -6  288.77   12.30
  -1  -2  -6  296.77   12.50
   1   2   6  308.47   13.30
   1   2   6  317.37   13.50
  -2  -2  -6   10.00    1.70
  -2  -2  -6   11.50    1.70
   2   2   6    8.80    1.60
   2   2   6   10.00    1.50
  -3  -2  -6  304.27   12.70
  -3  -2  -6  324.17   14.10
  -3  -2  -6  309.47   13.40
   3   2   6  334.07   14.50
   3   2   6  328.27   14.20
  -4  -2  -6  319.37   13.50
  -4  -2  -6  294.57   12.80
  -4  -2  -6  300.97   14.30
   4   2   6  327.77   13.90
   4   2   6  304.57   14.30
  -5  -2  -6   18.00    2.80
  -5  -2  -6   20.40    2.70
   5   2   6   17.40    2.90
   5   2   6   16.70    2.30
  -6  -2  -6   15.60    3.10
   6   2   6   14.30    3.20
   7   2   6    8.60    3.20
   8   2   6    2.40    4.10
   6  -3  -6   13.90    3.80
   6  -3  -6   18.70    4.90
  -6   3   6   24.30    4.20
   5  -3  -6   43.70    4.20
   5  -3  -6   34.60    5.00
  -5   3   6   36.80    4.60
  -5   3   6   38.20    4.50
   4  -3  -6   41.90    3.80
   4  -3  -6   39.60    4.50
  -4   3   6   46.40    4.90
  -4   3   6   42.10    4.20
   3  -3  -6    7.20    1.70
   3  -3  -6    8.00    2.00
  -3   3   6   10.50    2.20
  -3   3   6    8.90    2.20
   2  -3  -6   15.70    2.30
   2  -3  -6   16.20    2.10
  -2   3   6   14.70    2.50
  -2   3   6   23.10    2.30
   1  -3  -6  224.58   10.20
   1  -3  -6  229.48   10.10
   1  -3  -6  227.78    9.60
  -1   3   6  257.37   10.70
  -1   3   6  247.18   11.70
   0  -3  -6   99.09    5.10
   0  -3  -6   98.79    4.70
   0   3   6   99.79    5.10
   0   3   6   98.49    5.50
   0   3   6   94.59    4.30
  -1  -3  -6   26.90    2.60
  -1  -3  -6   28.60    2.30
   1   3   6   27.00    2.50
   1   3   6   34.00    2.80
  -2  -3  -6    1.30    1.00
  -2  -3  -6    2.20    1.30
   2   3   6    1.90    1.00
   2   3   6    1.00    1.20
  -3  -3  -6   98.69    6.20
  -3  -3  -6  107.89    5.60
   3   3   6  107.09    6.00
   3   3   6   98.19    5.30
  -4  -3  -6   25.80    2.90
  -4  -3  -6   25.00    3.60
   4   3   6   22.50    3.00
   4   3   6   19.80    2.20
  -5  -3  -6   52.49    4.60
   5   3   6   46.80    4.70
   5   3   6   50.89    4.10
  -6  -3  -6   -0.40    2.30
   6   3   6    2.20    2.10
  -7  -3  -6    3.50    3.30
   7   3   6   -1.20    2.50
   8   3   6    2.30    3.80
   6  -4  -6   17.00    5.90
  -6   4   6    8.90    3.30
  -6   4   6    8.40    3.80
   5  -4  -6    6.90    2.30
   5  -4  -6    2.70    3.60
  -5   4   6    4.70    2.60
  -5   4   6    7.90    3.00
   4  -4  -6   25.20    3.20
   4  -4  -6   29.30    4.40
  -4   4   6   24.30    3.40
  -4   4   6   33.90    4.40
   3  -4  -6   25.10    3.60
   3  -4  -6   21.00    2.70
  -3   4   6   27.90    3.10
  -3   4   6   23.20    3.40
   2  -4  -6   34.80    3.70
   2  -4  -6   30.80    3.00
  -2   4   6   42.70    3.30
  -2   4   6   38.40    4.00
   1  -4  -6   96.29    5.30
   1  -4  -6   92.49    5.70
   1  -4  -6   98.79    5.00
  -1   4   6   97.59    5.90
  -1   4   6   97.19    4.80
   0  -4  -6  364.86   15.60
   0  -4  -6  358.46   14.80
   0  -4  -6  347.17   15.20
   0   4   6  350.66   14.10
   0   4   6  347.27   15.50
  -1  -4  -6  183.38    8.30
  -1  -4  -6  187.48    9.00
   1   4   6  154.58    7.80
   1   4   6  156.68    7.30
  -2  -4  -6   56.09    4.30
  -2  -4  -6   50.79    3.50
   2   4   6   50.99    3.80
   2   4   6   47.20    3.20
  -3  -4  -6  113.39    6.20
  -3  -4  -6  116.59    6.90
   3   4   6  113.89    5.60
   3   4   6  106.59    6.30
  -4  -4  -6   35.90    4.30
  -4  -4  -6   38.10    3.60
   4   4   6   31.30    2.80
   4   4   6   38.80    4.00
  -5  -4  -6   31.30    3.50
   5   4   6   35.30    4.30
  -6  -4  -6   18.80    3.60
   6   4   6   14.10    3.10
  -7  -4  -6    2.70    3.10
   7   4   6    1.40    2.50
   8   4   6    1.90    3.30
   6  -5  -6    1.70    6.00
   6  -5  -6   -2.00    3.60
  -6   5   6    5.30    4.10
  -6   5   6   -1.80    3.30
   5  -5  -6    9.40    2.90
   5  -5  -6    5.30    4.40
  -5   5   6    9.30    3.50
  -5   5   6   13.90    3.40
   4  -5  -6   26.30    4.80
   4  -5  -6   28.60    3.60
  -4   5   6   29.20    4.40
  -4   5   6   26.70    3.80
   3  -5  -6   26.30    3.20
   3  -5  -6   29.80    4.40
  -3   5   6   36.90    3.70
  -3   5   6   37.50    4.40
   2  -5  -6  260.27   12.00
   2  -5  -6  258.97   13.00
  -2   5   6  275.57   12.00
  -2   5   6  267.07   13.20
   1  -5  -6  291.27   13.60
   1  -5  -6  278.97   12.70
  -1   5   6  306.17   13.00
  -1   5   6  302.97   14.30
   0  -5  -6  112.19    6.80
   0  -5  -6  104.89    5.80
   0  -5  -6  118.09    5.60
   0   5   6  108.39    6.30
  -1  -5  -6  112.69    6.70
  -1  -5  -6  108.99    5.60
  -1  -5  -6  103.29    5.60
   1   5   6   94.09    5.60
  -2  -5  -6  203.18    9.60
  -2  -5  -6  218.58   10.70
   2   5   6  193.38    9.80
   2   5   6  194.78    8.90
  -3  -5  -6    5.80    1.70
  -3  -5  -6    6.50    2.40
   3   5   6    7.10    2.00
   3   5   6    5.70    1.40
  -4  -5  -6  141.99    7.60
  -4  -5  -6  133.79    8.70
   4   5   6  124.69    7.70
   4   5   6  138.99    6.70
  -5  -5  -6   71.19    5.50
   5   5   6   63.49    5.20
  -6  -5  -6    8.80    3.10
   6   5   6    7.20    2.80
  -7  -5  -6    6.30    3.30
   7   5   6    3.70    3.10
  -8  -5  -6   10.80    5.00
   8   5   6    2.70    3.80
   5  -6  -6   13.60    3.40
   5  -6  -6   12.40    5.70
  -5   6   6    5.10    3.10
  -5   6   6   11.50    3.70
   4  -6  -6   24.10    3.40
   4  -6  -6   17.80    5.10
  -4   6   6   23.00    3.90
  -4   6   6   18.20    3.60
   3  -6  -6   13.20    4.00
   3  -6  -6    5.40    2.00
  -3   6   6    4.80    2.20
  -3   6   6    6.60    2.30
   2  -6  -6   43.30    4.10
   2  -6  -6   49.10    5.80
  -2   6   6   48.70    4.90
  -2   6   6   48.40    4.10
   1  -6  -6   14.30    2.30
   1  -6  -6   22.20    3.80
  -1   6   6   15.60    2.70
   0  -6  -6   63.49    4.50
   0  -6  -6   76.19    6.50
   0  -6  -6   76.09    5.00
   0   6   6   64.59    4.80
  -1  -6  -6  317.27   14.70
  -1  -6  -6  312.47   13.30
  -1  -6  -6  277.17   13.20
   1   6   6  257.57   12.30
  -2  -6  -6  350.76   15.30
  -2  -6  -6  348.37   15.60
  -2  -6  -6  379.46   17.00
   2   6   6  286.17   13.50
  -3  -6  -6   70.69    5.10
  -3  -6  -6   83.09    6.60
   3   6   6   62.79    3.90
   3   6   6   62.89    4.90
  -4  -6  -6   77.39    5.30
   4   6   6   62.09    5.20
  -5  -6  -6    2.30    2.20
   5   6   6   -0.60    1.90
  -6  -6  -6    5.40    3.20
   6   6   6    8.60    2.90
  -7  -6  -6    6.20    3.50
   7   6   6    2.80    2.90
  -8  -6  -6   -0.70    4.40
   8   6   6    1.50    3.80
   5  -7  -6    3.10    3.40
   4  -7  -6   -7.60    4.40
   4  -7  -6    0.40    2.30
  -4   7   6    3.90    3.50
  -4   7   6    4.50    2.80
   3  -7  -6    9.50    2.40
   3  -7  -6    5.10    4.20
  -3   7   6    9.60    3.00
   2  -7  -6   83.69    5.90
   2  -7  -6   81.29    8.10
  -2   7   6   81.49    6.20
   1  -7  -6  186.48    9.70
   1  -7  -6  190.68   11.50
  -1   7   6  185.78   10.30
   0  -7  -6   94.99    7.70
   0  -7  -6   99.29    5.90
   0   7   6   92.39    6.30
  -1  -7  -6    1.70    1.60
  -1  -7  -6   -1.10    1.60
  -1  -7  -6    4.30    2.80
   1   7   6    2.50    1.60
  -2  -7  -6    4.90    3.00
  -2  -7  -6   -0.40    1.50
  -2  -7  -6   -0.60    1.20
   2   7   6    0.00    1.40
  -3  -7  -6   40.40    5.80
  -3  -7  -6   33.80    3.10
  -3  -7  -6   28.30    3.30
   3   7   6   24.10    3.50
  -4  -7  -6   60.39    5.30
   4   7   6   56.59    5.70
  -5  -7  -6   46.20    4.80
   5   7   6   48.30    5.50
  -6  -7  -6   87.79    7.50
   6   7   6   64.79    6.70
  -7  -7  -6   69.19    7.20
   7   7   6   49.40    6.30
  -8  -7  -6   -2.00    4.70
   8   7   6   -0.80    3.40
   4  -8  -6   14.10    7.20
   4  -8  -6   12.10    3.60
  -4   8   6   15.70    4.30
   3  -8  -6    5.20    2.60
   3  -8  -6    0.20    4.80
  -3   8   6    8.20    3.20
   2  -8  -6   17.90    3.40
   2  -8  -6    9.00    4.90
  -2   8   6   16.00    3.40
   1  -8  -6   16.10    4.90
   1  -8  -6   11.30    2.60
  -1   8   6   15.10    3.20
   0  -8  -6   85.39    8.00
   0  -8  -6   85.69    5.90
   0   8   6   79.29    6.10
  -1  -8  -6  101.09    8.70
  -1  -8  -6   66.99    5.00
   1   8   6   76.19    5.80
  -2  -8  -6    3.90    1.90
  -2  -8  -6    5.60    3.90
  -2  -8  -6    4.10    2.00
   2   8   6    2.00    1.70
  -3  -8  -6   14.60    3.00
   3   8   6   11.70    2.70
  -4  -8  -6    8.40    2.60
   4   8   6   11.10    2.70
  -5  -8  -6   10.90    3.00
   5   8   6   11.50    3.20
  -6  -8  -6   41.30    5.40
   6   8   6   32.10    5.00
  -7  -8  -6    4.10    4.00
   7   8   6   -1.60    2.40
  -8  -8  -6   16.00    5.80
   8   8   6    4.00    4.90
   3  -9  -6    6.90    3.30
  -3   9   6    5.00    3.50
   2  -9  -6   13.50    6.70
   2  -9  -6    5.50    3.20
  -2   9   6    8.00    3.10
   1  -9  -6   18.30    6.40
   1  -9  -6   23.80    3.90
  -1   9   6   23.10    4.10
   0  -9  -6  106.39   13.20
   0  -9  -6   81.49    6.50
   0   9   6   75.19    6.20
  -1  -9  -6   95.59    6.50
   1   9   6   84.39    6.40
  -2  -9  -6   60.39    5.30
  -2  -9  -6   61.39    5.10
   2   9   6   49.80    5.30
  -3  -9  -6   22.40    3.60
   3   9   6   19.70    3.60
  -4  -9  -6    4.30    2.60
   4   9   6    6.30    2.50
  -5  -9  -6   10.70    3.20
   5   9   6    8.90    3.00
  -6  -9  -6   37.40    5.20
   6   9   6   29.80    5.30
  -7  -9  -6   44.70    6.70
   7   9   6   31.40    5.50
   2 -10  -6   12.70    4.40
  -2  10   6   13.30    5.40
   1 -10  -6   18.90    4.10
  -1  10   6   14.80    4.10
   0 -10  -6    2.60    3.00
   0  10   6    1.00    2.70
  -1 -10  -6   35.70    4.40
   1  10   6   31.00    4.70
   2  10   6   16.00    3.30
  -3 -10  -6   51.59    5.70
   3  10   6   38.30    5.20
  -4 -10  -6   76.09    7.30
   4  10   6   59.49    6.70
  -5 -10  -6   32.90    4.90
   5  10   6   32.10    5.10
  -6 -10  -6    8.00    3.70
   6  10   6    9.50    3.70
  -7 -10  -6    4.40    5.90
   7  10   6    1.90    4.20
   1 -11  -6   41.50    6.10
   0 -11  -6   48.90    5.90
   0  11   6   49.90    7.10
  -1 -11  -6   12.30    4.00
   1  11   6   13.70    3.90
   2  11   6   16.80    4.00
  -3 -11  -6   26.00    5.10
   3  11   6   18.70    4.20
  -4 -11  -6   27.80    4.90
   4  11   6   15.50    3.90
  -5 -11  -6    9.90    4.10
   5  11   6   11.10    4.00
  -6 -11  -6   14.10    5.30
   6  11   6    8.50    4.50
   2  12   6   -0.70    5.00
   3  12   6   12.80    4.30
  -4 -12  -6   43.00    7.10
   4  12   6   37.30    6.30
   4   9  -7   10.80    4.60
   4   9  -7    7.40    4.30
   4   9  -7   17.20    6.80
  -4  -9   7    5.70    5.10
   3   9  -7   13.60    6.00
   3   9  -7   19.40    4.40
   3   9  -7   13.30    4.00
  -3  -9   7   16.40    4.50
   2   9  -7   43.90    5.80
   2   9  -7   45.40    5.80
   2   9  -7   49.90    7.60
  -2  -9   7   33.80    5.30
   1   9  -7   12.00    3.60
   1   9  -7   12.60    6.00
  -1  -9   7   15.20    4.20
   0   9  -7   10.90    6.40
   0   9  -7   10.90    3.40
   0  -9   7   11.40    4.00
  -1   9  -7    5.40    3.70
   1  -9   7    6.80    4.40
   5   8  -7   17.70    5.60
   5   8  -7   18.50    4.40
   5   8  -7   20.80    4.60
  -5  -8   7   11.30    5.40
   4   8  -7    5.70    3.30
   4   8  -7    4.40    4.60
   4   8  -7    1.50    2.90
  -4  -8   7    3.30    4.00
   3   8  -7   43.90    5.50
   3   8  -7   36.60    5.10
   3   8  -7   50.49    7.00
  -3  -8   7   43.20    5.50
   2   8  -7   30.80    4.50
   2   8  -7   32.60    6.00
   2   8  -7   33.50    4.70
  -2  -8   7   26.30    4.40
   1   8  -7   49.40    7.10
   1   8  -7   52.89    5.70
  -1  -8   7   36.70    4.90
   0   8  -7   47.30    5.50
   0   8  -7   36.70    6.40
   0  -8   7   39.20    5.10
   0  -8   7   44.10    5.40
  -1   8  -7   26.60    4.20
  -1   8  -7   28.40    7.50
   1  -8   7   22.70    4.70
   1  -8   7   32.00    4.90
  -2   8  -7   15.50    3.50
   2  -8   7   19.70    4.70
   6   7  -7   29.30    5.60
   6   7  -7   32.30    5.80
   6   7  -7   36.50    6.20
  -6  -7   7   27.70    6.30
   5   7  -7   23.30    4.50
   5   7  -7   32.30    4.80
   5   7  -7   37.70    5.20
  -5  -7   7   27.20    5.80
   4   7  -7   17.10    3.70
   4   7  -7   21.70    3.70
   4   7  -7   15.70    4.30
  -4  -7   7   23.10    4.90
   3   7  -7   11.00    2.90
   3   7  -7    6.00    2.60
   3   7  -7    6.20    3.60
  -3  -7   7    7.40    3.30
   2   7  -7   43.60    5.90
   2   7  -7   38.30    4.60
   2   7  -7   39.20    4.80
  -2  -7   7   36.90    4.60
   1   7  -7   17.60    4.20
   1   7  -7   16.70    3.30
   1   7  -7   18.30    3.50
  -1  -7   7   19.90    3.60
   0   7  -7   13.20    3.00
   0   7  -7   11.00    4.10
   0  -7   7    8.50    2.60
   0  -7   7   12.30    3.10
  -1   7  -7   -1.80    1.90
  -1   7  -7    4.50    3.70
   1  -7   7   -0.50    2.70
   1  -7   7    0.20    2.20
  -2   7  -7   20.00    3.70
   2  -7   7   16.00    4.00
  -3   7  -7   47.10    5.20
   3  -7   7   53.79    6.40
  -6  -6   7    1.30    4.20
  -6  -6   7    1.90    4.50
   5   6  -7  102.79    7.70
   5   6  -7   86.99    8.00
   5   6  -7   90.19    7.10
  -5  -6   7   93.69    8.60
   4   6  -7   34.70    4.30
   4   6  -7   32.00    4.30
   4   6  -7   26.40    4.00
  -4  -6   7   30.30    4.90
   3   6  -7   45.00    4.80
   3   6  -7   43.20    4.90
   3   6  -7   44.20    4.80
  -3  -6   7   44.20    5.40
   2   6  -7   94.29    7.40
   2   6  -7  104.79    6.90
   2   6  -7  112.19    7.00
  -2  -6   7  108.89    7.20
   1   6  -7   65.79    5.20
   1   6  -7   67.19    6.40
   1   6  -7   62.49    5.60
  -1  -6   7   57.99    4.70
  -1  -6   7   62.29    5.70
   0   6  -7    6.90    2.10
   0   6  -7    9.80    3.40
   0  -6   7   14.00    2.80
   0  -6   7    9.20    2.60
  -1   6  -7   74.29    7.20
  -1   6  -7   70.49    5.40
   1  -6   7   66.89    5.80
   1  -6   7   69.29    5.50
  -2   6  -7    1.50    3.40
  -2   6  -7    3.00    2.00
   2  -6   7    2.70    2.70
   2  -6   7    2.70    2.30
  -3   6  -7    8.90    2.60
   3  -6   7    8.90    3.40
  -4   6  -7    6.50    2.70
   4  -6   7    2.70    3.40
   7   5  -7   15.10    4.70
  -7  -5   7   13.00    5.70
   6   5  -7   39.30    5.10
  -6  -5   7   30.90    5.60
   5   5  -7   11.00    3.10
  -5  -5   7    9.70    3.90
  -5  -5   7   12.50    3.70
   4   5  -7   33.80    4.20
   4   5  -7   40.40    4.60
   4   5  -7   28.80    3.60
  -4  -5   7   38.10    4.90
   3   5  -7    2.10    1.70
   3   5  -7    2.30    1.60
   3   5  -7    1.80    1.70
  -3  -5   7    3.90    2.60
   2   5  -7   56.49    5.10
   2   5  -7   60.29    4.80
   2   5  -7   63.79    4.80
  -2  -5   7   63.89    5.80
   1   5  -7   70.69    5.60
   1   5  -7   69.99    5.20
   1   5  -7   74.89    5.30
  -1  -5   7   83.19    5.70
  -1  -5   7   80.19    5.20
   0   5  -7   25.00    3.20
   0   5  -7   24.80    3.30
   0   5  -7   24.40    3.90
   0  -5   7   20.10    2.90
   0  -5   7   21.20    3.10
  -1   5  -7   52.79    5.40
  -1   5  -7   50.89    4.60
   1  -5   7   53.29    4.80
   1  -5   7   50.29    4.70
  -2   5  -7   28.40    4.50
  -2   5  -7   23.70    3.20
   2  -5   7   39.00    4.30
   2  -5   7   31.60    3.70
  -3   5  -7   25.70    3.50
   3  -5   7   32.20    4.40
  -4   5  -7    8.90    2.80
   4  -5   7    5.60    2.30
  -5   5  -7    4.20    2.50
   5  -5   7   11.60    3.40
   7   4  -7    8.80    3.80
   7   4  -7   12.30    3.80
  -7  -4   7   11.10    5.00
   6   4  -7   13.90    3.20
   6   4  -7   18.60    4.30
  -6  -4   7   14.40    4.10
   5   4  -7   31.00    4.50
   5   4  -7   30.40    3.70
  -5  -4   7   31.50    4.60
  -5  -4   7   38.30    5.00
   4   4  -7   39.30    3.70
  -4  -4   7   42.00    4.80
  -4  -4   7   41.80    4.90
   3   4  -7   26.70    3.00
   3   4  -7   28.80    3.70
   3   4  -7   38.40    4.00
  -3  -4   7   33.20    4.10
   2   4  -7  114.99    6.80
   2   4  -7  127.19    7.00
   2   4  -7  122.19    6.60
  -2  -4   7  141.09    8.00
  -2  -4   7  137.39    7.10
   1   4  -7    6.00    1.80
   1   4  -7    6.00    2.00
   1   4  -7    5.30    1.80
  -1  -4   7    4.30    1.80
  -1  -4   7    6.20    1.90
   0   4  -7    0.50    1.40
   0   4  -7    0.60    1.80
   0   4  -7    0.80    1.40
   0  -4   7    1.30    1.30
   0  -4   7    4.80    1.70
  -1   4  -7   61.89    5.30
  -1   4  -7   66.39    4.50
   1  -4   7   67.69    4.90
   1  -4   7   67.89    4.70
  -2   4  -7   53.39    5.30
  -2   4  -7   52.19    4.10
   2  -4   7   58.59    5.10
   2  -4   7   63.39    4.50
  -3   4  -7    7.90    2.30
  -3   4  -7    5.00    1.90
  -3   4  -7    8.10    3.30
   3  -4   7    7.00    2.50
  -4   4  -7    0.80    1.70
   4  -4   7   -1.80    1.60
  -5   4  -7    4.60    2.30
   5  -4   7    6.00    2.80
  -6   4  -7   -0.20    2.40
   6  -4   7    0.90    3.00
   7   3  -7    7.70    3.40
   7   3  -7    2.90    3.30
  -7  -3   7    8.60    4.80
   6   3  -7   31.00    4.70
   6   3  -7   26.30    3.80
  -6  -3   7   33.50    5.10
   5   3  -7   25.20    3.90
   5   3  -7   15.70    2.60
  -5  -3   7   33.60    4.70
   4   3  -7    8.30    1.60
   4   3  -7   11.00    2.30
  -4  -3   7   13.30    3.00
  -4  -3   7   16.00    3.10
   3   3  -7  168.98    8.10
   3   3  -7  196.78    9.10
  -3  -3   7  190.48    9.70
  -3  -3   7  176.68    9.50
   2   3  -7  139.39    7.40
   2   3  -7  137.39    6.70
   2   3  -7  139.59    7.40
  -2  -3   7  165.68    7.90
  -2  -3   7  159.48    8.50
   1   3  -7  529.05   21.80
   1   3  -7  518.95   22.10
   1   3  -7  516.65   22.10
  -1  -3   7  541.25   22.20
  -1  -3   7  522.05   22.60
   0   3  -7   13.60    2.30
   0   3  -7   11.60    2.10
   0   3  -7   12.90    2.20
   0  -3   7   11.70    2.10
   0  -3   7   15.80    2.20
  -1   3  -7  178.58    8.80
  -1   3  -7  185.78    9.40
   1  -3   7  186.58    9.20
   1  -3   7  189.18    9.30
  -2   3  -7  161.88    8.40
  -2   3  -7  187.08    9.50
   2  -3   7  186.28    9.40
   2  -3   7  187.88    9.30
  -3   3  -7   30.30    4.20
  -3   3  -7   25.60    2.90
  -3   3  -7   23.80    3.00
   3  -3   7   27.90    3.30
  -4   3  -7    3.50    1.60
  -4   3  -7    5.50    2.50
   4  -3   7    5.40    2.10
  -5   3  -7    8.30    2.20
   5  -3   7   11.50    2.90
  -6   3  -7   15.50    3.00
   6  -3   7   19.80    4.20
   7   2  -7    0.90    2.60
   7   2  -7    8.20    3.20
  -7  -2   7    2.90    3.90
   6   2  -7   16.40    3.20
   6   2  -7   16.10    3.40
  -6  -2   7   20.30    4.30
   5   2  -7    1.80    1.90
   5   2  -7    3.90    1.70
  -5  -2   7   -1.50    2.10
   4   2  -7  202.28   10.30
   4   2  -7  204.38    9.00
  -4  -2   7  231.68   11.60
  -4  -2   7  249.58   12.00
   3   2  -7  155.78    8.10
  -3  -2   7  161.38    8.10
  -3  -2   7  145.59    8.00
  -3  -2   7  157.98    8.20
   2   2  -7  221.28   10.10
  -2  -2   7  205.08    9.80
  -2  -2   7  184.28    9.60
  -2  -2   7  209.78    9.40
  -2  -2   7  195.18    9.10
   1   2  -7    1.90    1.10
   1   2  -7    0.80    0.90
   1   2  -7    1.00    1.10
  -1  -2   7   -0.30    1.10
  -1  -2   7    0.90    1.30
   0   2  -7   34.90    3.10
   0   2  -7   29.20    2.80
   0   2  -7   29.80    2.90
   0  -2   7   41.70    3.30
   0  -2   7   28.80    2.90
  -1   2  -7   51.99    3.90
  -1   2  -7   48.20    3.40
   1  -2   7   51.89    3.70
   1  -2   7   50.99    3.70
  -2   2  -7  120.29    6.30
  -2   2  -7  111.79    6.00
  -2   2  -7  120.39    6.80
   2  -2   7  119.49    6.60
  -3   2  -7   76.99    4.80
  -3   2  -7   83.59    5.00
  -3   2  -7   77.39    5.90
   3  -2   7   82.29    5.20
  -4   2  -7   96.79    5.70
  -4   2  -7   87.99    5.40
  -4   2  -7   99.99    8.20
   4  -2   7  106.59    6.60
  -5   2  -7   14.40    2.50
   5  -2   7   18.10    3.20
  -6   2  -7    5.40    2.30
   6  -2   7    7.60    2.80
  -7   2  -7    4.60    3.20
   7  -2   7    6.50    3.80
   7   1  -7   52.39    5.50
   7   1  -7   56.79    6.50
  -7  -1   7   57.09    7.10
   6   1  -7   30.80    3.80
   6   1  -7   30.30    4.50
  -6  -1   7   36.30    4.80
   5   1  -7   10.90    2.60
   5   1  -7   12.30    2.30
  -5  -1   7   16.60    3.40
   4   1  -7   42.30    3.00
   4   1  -7   52.69    4.70
  -4  -1   7   58.69    5.10
  -3  -1   7  411.26   17.70
  -3  -1   7  396.76   17.40
  -3  -1   7  400.06   17.90
  -3  -1   7  412.36   17.10
  -2  -1   7    4.80    1.60
  -2  -1   7    5.70    1.60
  -2  -1   7    6.80    1.50
  -2  -1   7    5.30    1.70
   1   1  -7  571.74   23.10
   1   1  -7  543.05   23.00
  -1  -1   7  571.14   23.10
  -1  -1   7  545.65   23.20
  -1  -1   7  570.34   23.40
   0   1  -7  215.28    9.20
   0   1  -7  189.08    8.90
   0   1  -7  214.78    9.20
   0  -1   7  210.78   10.00
   0  -1   7  232.98    9.70
   0  -1   7  222.98   10.20
  -1   1  -7   67.59    4.10
  -1   1  -7   67.59    3.80
   1  -1   7   72.49    4.50
   1  -1   7   81.49    4.80
  -2   1  -7  185.98    9.40
  -2   1  -7  194.08    8.70
  -2   1  -7  197.88    8.90
   2  -1   7  204.88    9.60
  -3   1  -7   69.79    4.10
  -3   1  -7   66.19    4.40
  -3   1  -7   79.89    5.60
   3  -1   7   82.39    5.20
  -4   1  -7   81.69    5.00
  -4   1  -7   68.49    4.50
  -4   1  -7   77.69    6.60
   4  -1   7   72.39    4.90
  -5   1  -7   21.10    2.90
  -5   1  -7   21.90    3.30
   5  -1   7   21.00    3.00
  -6   1  -7   16.20    2.90
   6  -1   7   17.60    3.20
   7   0  -7    3.70    3.10
   7   0  -7    2.10    2.70
  -7   0   7    1.70    3.90
   6   0  -7   37.80    4.50
   6   0  -7   31.30    4.60
  -6   0   7   35.30    4.70
   5   0  -7    6.40    1.90
   5   0  -7    0.70    1.90
  -5   0   7    5.40    2.60
   4   0  -7   75.49    4.30
  -4   0   7   87.99    6.20
  -4   0   7   87.89    5.80
   3   0  -7  318.77   13.80
  -3   0   7  325.87   14.90
  -3   0   7  334.57   14.50
  -3   0   7  323.37   14.20
  -2   0   7  291.37   12.60
  -2   0   7  283.87   12.40
  -2   0   7  273.07   12.40
  -2   0   7  292.37   12.90
  -1   0   7  317.17   13.40
  -1   0   7  320.27   13.60
  -1   0   7  298.77   13.50
  -1   0   7  313.47   13.50
   0   0  -7  127.79    5.80
   0   0  -7  131.89    5.80
   0   0  -7  117.29    5.60
   0   0  -7  121.29    5.80
   0   0   7  135.79    6.80
   0   0   7  138.69    6.80
   0   0   7  144.89    6.70
  -1   0  -7  198.68    8.40
  -1   0  -7  192.58    8.80
  -1   0  -7  188.18    8.70
   1   0   7  207.48    9.80
   1   0   7  222.08    9.50
  -2   0  -7   23.80    2.70
  -2   0  -7   22.00    2.40
  -2   0  -7   23.20    2.00
   2   0   7   25.00    2.70
   2   0   7   31.20    2.70
  -3   0  -7    3.10    1.10
  -3   0  -7    7.90    1.60
  -3   0  -7    3.40    1.90
   3   0   7    4.60    1.50
   3   0   7    4.00    1.70
  -4   0  -7   26.70    4.00
  -4   0  -7   18.40    2.60
  -4   0  -7   20.50    2.40
   4   0   7   20.60    2.60
  -5   0  -7   15.80    2.80
  -5   0  -7   10.70    2.20
   5   0   7   16.30    2.60
   6   0   7  105.59    7.00
   7  -1  -7   59.79    7.00
   7  -1  -7   69.99    7.60
  -7   1   7   66.69    7.20
   6  -1  -7   26.70    4.20
   6  -1  -7   17.60    3.80
  -6   1   7   28.50    4.60
   5  -1  -7    6.50    2.20
  -5   1   7    2.90    2.70
  -5   1   7    1.20    2.40
   4  -1  -7   20.10    2.60
   4  -1  -7   22.60    2.60
  -4   1   7   26.60    3.50
  -4   1   7   23.20    3.60
   3  -1  -7  150.48    7.10
   3  -1  -7  160.78    7.60
  -3   1   7  168.48    9.10
  -3   1   7  174.18    8.50
  -2   1   7   12.90    1.90
  -2   1   7   10.30    1.60
  -2   1   7   10.00    1.80
  -2   1   7    9.70    2.10
   1  -1  -7   80.69    4.20
  -1   1   7   86.29    4.90
  -1   1   7   95.59    4.80
  -1   1   7   93.49    5.30
   0  -1  -7  191.78    8.50
   0  -1  -7  195.98    8.20
   0  -1  -7  184.68    8.10
   0  -1  -7  186.98    8.40
   0  -1  -7  196.28    8.20
   0   1   7  201.78    9.20
   0   1   7  200.08    9.20
  -1  -1  -7   60.19    3.60
  -1  -1  -7   64.59    3.60
  -1  -1  -7   61.69    3.10
   1   1   7   67.39    4.00
   1   1   7   67.39    4.00
  -2  -1  -7   40.30    3.40
  -2  -1  -7   33.60    2.20
  -2  -1  -7   35.90    2.80
   2   1   7   36.80    3.10
   2   1   7   40.60    3.10
  -3  -1  -7   96.49    4.90
  -3  -1  -7  105.69    5.50
  -3  -1  -7  111.99    6.40
   3   1   7  119.39    6.20
   3   1   7  107.09    6.10
  -4  -1  -7  313.37   14.50
  -4  -1  -7  286.77   13.30
   4   1   7  300.17   13.60
   4   1   7  307.97   13.80
  -5  -1  -7    3.00    2.00
   5   1   7    2.60    1.90
   5   1   7   -0.30    1.40
  -6  -1  -7    9.60    3.20
   6   1   7   13.40    2.90
   6  -2  -7    8.30    3.00
   6  -2  -7   11.50    3.40
  -6   2   7   11.70    3.70
   5  -2  -7   13.30    2.80
  -5   2   7   17.20    3.40
  -5   2   7   20.30    4.10
   4  -2  -7   34.20    3.30
   4  -2  -7   29.90    3.40
  -4   2   7   35.80    4.00
  -4   2   7   32.70    4.30
   3  -2  -7  242.28   10.70
   3  -2  -7  218.68   10.40
  -3   2   7  266.67   11.90
  -3   2   7  252.47   12.60
   2  -2  -7   88.49    4.80
   2  -2  -7   99.09    5.10
   2  -2  -7   86.29    4.70
  -2   2   7  110.59    5.60
  -2   2   7   99.69    6.20
   1  -2  -7    4.10    1.10
   1  -2  -7    4.30    0.90
   1  -2  -7    6.10    1.30
  -1   2   7    3.80    1.50
  -1   2   7    3.70    1.30
  -1   2   7    6.10    1.20
   0  -2  -7   83.99    4.40
   0  -2  -7   86.19    4.30
   0  -2  -7   91.69    4.80
   0   2   7   94.89    5.20
   0   2   7  100.49    4.60
   0   2   7   97.79    5.40
  -1  -2  -7    7.70    1.40
  -1  -2  -7    5.90    1.30
   1   2   7   10.00    1.60
   1   2   7   15.60    2.10
  -2  -2  -7   46.70    3.60
  -2  -2  -7   47.50    3.20
   2   2   7   51.39    3.60
   2   2   7   47.70    3.30
  -3  -2  -7   22.70    2.50
  -3  -2  -7   16.60    2.60
   3   2   7   20.10    2.30
   3   2   7   15.60    2.40
  -4  -2  -7   77.89    5.90
  -4  -2  -7   74.69    4.90
   4   2   7   69.69    4.90
   4   2   7   69.09    4.50
  -5  -2  -7   79.59    5.50
   5   2   7   71.89    5.50
   5   2   7   71.99    4.90
  -6  -2  -7   13.10    3.10
   6   2   7    9.50    2.90
   7   2   7    7.50    3.40
   6  -3  -7   17.40    5.00
  -6   3   7   21.90    4.60
  -6   3   7   18.50    4.30
   5  -3  -7   43.60    5.40
   5  -3  -7   37.40    4.10
  -5   3   7   45.60    5.60
  -5   3   7   44.70    5.00
   4  -3  -7   46.20    4.30
   4  -3  -7   54.59    5.00
  -4   3   7   55.29    5.70
  -4   3   7   52.19    4.80
   3  -3  -7    3.30    1.50
   3  -3  -7    4.20    1.70
  -3   3   7    7.20    2.10
  -3   3   7    3.50    2.10
   2  -3  -7  245.98   11.10
   2  -3  -7  242.98   11.10
  -2   3   7  280.37   13.40
  -2   3   7  286.57   12.40
   1  -3  -7  108.89    5.10
   1  -3  -7  103.89    5.50
  -1   3   7  123.59    6.40
  -1   3   7  128.59    7.00
  -1   3   7  124.59    5.90
   0  -3  -7   55.39    3.60
   0  -3  -7   59.99    3.40
   0   3   7   49.80    3.40
   0   3   7   57.59    4.10
  -1  -3  -7  138.29    6.60
  -1  -3  -7  141.59    7.00
   1   3   7  152.08    7.30
   1   3   7  130.99    6.80
  -2  -3  -7  264.97   12.30
  -2  -3  -7  277.37   11.90
   2   3   7  279.67   12.30
   2   3   7  281.37   12.80
  -3  -3  -7  127.09    7.30
  -3  -3  -7  128.59    6.60
   3   3   7  129.69    7.00
   3   3   7  124.99    6.50
  -4  -3  -7  202.68    9.90
  -4  -3  -7  211.18   10.90
   4   3   7  207.38    9.60
   4   3   7  200.08   10.30
  -5  -3  -7   32.10    3.80
   5   3   7   27.10    3.00
   5   3   7   25.00    3.50
  -6  -3  -7    9.40    3.00
   6   3   7    5.20    2.50
  -7  -3  -7   14.30    3.90
   7   3   7    7.80    3.40
   8   3   7    2.60    3.70
   6  -4  -7    1.80    5.00
  -6   4   7    7.70    4.00
  -6   4   7    8.20    3.70
   5  -4  -7    9.00    2.80
   5  -4  -7    3.30    3.80
  -5   4   7    9.20    3.40
  -5   4   7   12.00    3.20
   4  -4  -7   10.70    3.30
   4  -4  -7   12.80    2.50
  -4   4   7   11.10    2.90
  -4   4   7   20.20    3.70
   3  -4  -7   92.39    5.60
   3  -4  -7   88.19    6.30
  -3   4   7   93.49    6.60
  -3   4   7  100.89    6.00
   2  -4  -7   83.79    5.60
   2  -4  -7   90.89    5.20
  -2   4   7  104.19    5.50
  -2   4   7   87.39    6.20
   1  -4  -7    9.80    1.80
   1  -4  -7   12.90    2.30
  -1   4   7    9.60    2.20
   0  -4  -7   44.50    3.00
   0  -4  -7   47.10    3.80
   0   4   7   45.90    3.70
   0   4   7   42.10    3.50
  -1  -4  -7  222.58   10.00
  -1  -4  -7  227.18   10.60
   1   4   7  195.18    9.80
   1   4   7  210.28    9.40
  -2  -4  -7  110.19    5.70
  -2  -4  -7   97.49    6.20
   2   4   7  101.29    5.90
   2   4   7   96.49    5.30
  -3  -4  -7   98.99    5.60
  -3  -4  -7  100.19    6.50
   3   4   7   91.09    4.90
   3   4   7   80.09    5.40
  -4  -4  -7   25.20    3.90
  -4  -4  -7   30.20    3.30
   4   4   7   24.90    3.40
   4   4   7   29.40    2.80
  -5  -4  -7  183.38    9.60
   5   4   7  173.88    9.60
  -6  -4  -7   35.30    4.60
   6   4   7   20.50    3.60
  -7  -4  -7   14.60    4.00
   7   4   7   12.90    3.70
   8   4   7   21.10    4.80
   5  -5  -7   12.30    3.10
   5  -5  -7   10.00    4.90
  -5   5   7   10.20    3.50
  -5   5   7   12.70    3.80
   4  -5  -7   43.60    4.50
   4  -5  -7   39.20    5.80
  -4   5   7   42.70    5.30
  -4   5   7   53.69    5.00
   3  -5  -7   61.99    5.10
   3  -5  -7   68.69    6.60
  -3   5   7   62.39    6.00
  -3   5   7   67.49    5.20
   2  -5  -7   55.69    5.50
   2  -5  -7   70.59    4.60
  -2   5   7   66.09    5.20
   1  -5  -7  299.17   14.00
   1  -5  -7  293.47   13.40
  -1   5   7  325.77   15.30
   0  -5  -7  130.39    6.30
   0  -5  -7  115.39    6.50
   0  -5  -7  125.89    7.40
   0   5   7  130.59    7.50
  -1  -5  -7  137.19    6.90
  -1  -5  -7  139.79    7.80
   1   5   7  120.09    6.20
   1   5   7  118.39    6.90
  -2  -5  -7   68.09    5.80
  -2  -5  -7   57.19    4.20
   2   5   7   55.79    3.70
   2   5   7   55.79    4.30
  -3  -5  -7   78.09    5.10
  -3  -5  -7   82.69    6.20
   3   5   7   71.39    4.30
   3   5   7   66.99    5.00
  -4  -5  -7  486.95   21.90
  -4  -5  -7  475.25   20.70
   4   5   7  437.36   19.60
   4   5   7  431.76   18.40
  -5  -5  -7   25.70    3.60
   5   5   7   21.50    3.60
  -6  -5  -7   73.39    6.30
   6   5   7   52.99    5.70
  -7  -5  -7   33.00    5.20
   7   5   7   17.60    4.00
  -8  -5  -7    2.40    4.50
   8   5   7    6.00    4.00
   5  -6  -7   12.70    3.50
   5  -6  -7    7.20    5.60
  -5   6   7   20.20    4.70
   4  -6  -7    6.30    4.60
   4  -6  -7    6.50    2.60
  -4   6   7    6.00    2.90
   3  -6  -7   22.90    3.30
   3  -6  -7   15.50    4.30
  -3   6   7   22.00    3.80
   2  -6  -7   24.10    4.60
   2  -6  -7   20.50    2.90
  -2   6   7   24.90    3.70
   1  -6  -7  125.69    6.90
   1  -6  -7  117.09    8.10
  -1   6   7  130.69    7.90
   0  -6  -7  194.58   10.20
   0  -6  -7  172.88    9.00
   0   6   7  193.48   10.20
  -1  -6  -7   60.59    4.30
  -1  -6  -7   55.19    4.00
  -1  -6  -7   58.29    5.80
   1   6   7   55.09    5.00
  -2  -6  -7  184.28   10.20
  -2  -6  -7  172.98    8.60
  -2  -6  -7  178.08    8.80
   2   6   7  150.98    8.50
  -3  -6  -7   98.39    6.00
  -3  -6  -7  110.29    7.80
   3   6   7   76.49    5.90
   3   6   7   89.99    5.00
  -4  -6  -7  299.07   13.80
   4   6   7  285.77   14.20
  -5  -6  -7   25.60    3.80
   5   6   7   19.70    3.80
  -6  -6  -7    0.30    2.80
   6   6   7   -0.90    2.30
  -7  -6  -7    2.70    3.40
   7   6   7    4.60    3.40
  -8  -6  -7   12.80    5.20
   8   6   7    7.80    4.10
   4  -7  -7    1.30    5.00
   4  -7  -7    0.10    2.30
  -4   7   7    0.40    2.60
   3  -7  -7   10.90    4.70
   3  -7  -7    8.50    2.60
  -3   7   7    9.10    2.80
   2  -7  -7   31.50    3.70
   2  -7  -7   33.30    5.90
  -2   7   7   33.80    4.40
   1  -7  -7  117.89    7.00
   1  -7  -7  114.69    9.00
  -1   7   7  118.59    7.80
   0  -7  -7   39.50    3.80
   0  -7  -7   42.60    5.70
   0   7   7   38.80    4.40
  -1  -7  -7   49.00    4.10
  -1  -7  -7   37.80    3.70
  -1  -7  -7   49.40    5.70
   1   7   7   39.30    4.40
  -2  -7  -7   38.60    3.60
  -2  -7  -7   46.60    4.20
  -2  -7  -7   37.30    5.10
   2   7   7   31.60    4.10
  -3  -7  -7   57.99    4.10
  -3  -7  -7   47.10    5.80
  -3  -7  -7   43.70    4.40
   3   7   7   43.40    4.90
  -4  -7  -7  154.48    8.60
   4   7   7  140.09    8.60
  -5  -7  -7  120.69    7.70
   5   7   7   89.69    7.30
  -6  -7  -7   11.60    3.60
   6   7   7   12.60    3.90
  -7  -7  -7   20.00    4.90
   7   7   7   11.60    4.30
  -8  -7  -7    7.70    5.00
   8   7   7    9.60    4.90
   4  -8  -7   16.50    4.30
   4  -8  -7   16.10    7.30
  -4   8   7   27.40    5.20
   3  -8  -7    6.50    2.70
   3  -8  -7   10.50    5.60
  -3   8   7   10.60    3.50
   2  -8  -7   42.50    6.90
   2  -8  -7   42.80    4.90
  -2   8   7   51.29    5.80
   1  -8  -7   54.89    5.10
   1  -8  -7   65.49    7.50
  -1   8   7   55.99    6.00
   0  -8  -7    0.30    3.50
   0  -8  -7    2.10    2.00
   0   8   7    2.20    1.90
  -1  -8  -7   71.39    5.10
  -1  -8  -7   68.79    7.00
   1   8   7   64.99    5.40
  -2  -8  -7   99.99    9.00
  -2  -8  -7   89.49    5.50
  -2  -8  -7   75.99    5.80
   2   8   7   73.39    5.80
  -3  -8  -7   19.80    3.60
  -3  -8  -7   20.40    3.10
   3   8   7   24.90    3.70
  -4  -8  -7  164.88    9.20
   4   8   7  109.09    7.50
  -5  -8  -7   30.10    4.20
   5   8   7   28.80    4.50
  -6  -8  -7   -1.40    3.10
   6   8   7    5.70    3.60
  -7  -8  -7    5.00    4.40
   7   8   7    5.70    4.00
   3  -9  -7   -1.70    6.40
   3  -9  -7    1.40    3.10
  -3   9   7   -3.10    2.90
   2  -9  -7    2.40    3.10
   2  -9  -7    5.50    5.80
  -2   9   7    5.20    3.10
   1  -9  -7   99.29   10.20
   1  -9  -7   70.69    6.30
  -1   9   7   85.49    7.20
   0  -9  -7   25.70    3.80
   0  -9  -7   13.60    5.40
   0   9   7   18.00    3.80
  -1  -9  -7  137.29    8.10
  -1  -9  -7  148.19   12.10
   1   9   7  131.09    8.70
  -2  -9  -7   80.89    6.30
  -2  -9  -7   73.49    5.40
   2   9   7   59.99    6.00
  -3  -9  -7  127.39    8.00
   3   9   7  114.99    7.90
  -4  -9  -7   77.59    6.30
   4   9   7   64.59    6.70
  -5  -9  -7   22.00    3.80
   5   9   7   14.50    3.70
  -6  -9  -7   -1.30    2.70
   6   9   7    2.50    2.60
  -7  -9  -7   41.50    6.60
   7   9   7   22.90    5.00
   2 -10  -7    1.10    3.80
  -2  10   7    2.30    3.80
   1 -10  -7   22.00    4.50
  -1  10   7   26.70    4.80
   0 -10  -7    3.00    3.10
   0  10   7    3.20    3.20
  -1 -10  -7   28.20    4.10
   1  10   7   33.40    5.10
  -2 -10  -7  210.68   12.80
   2  10   7  194.98   11.50
  -3 -10  -7   57.59    5.80
   3  10   7   40.70    5.30
  -4 -10  -7   81.19    7.40
   4  10   7   70.59    7.30
  -5 -10  -7   72.29    7.20
   5  10   7   53.09    6.50
  -6 -10  -7    4.40    3.60
   6  10   7   -2.30    2.30
   0 -11  -7   16.10    4.80
   0  11   7   17.20    4.60
  -1 -11  -7    3.20    3.30
   1  11   7    2.70    3.10
   2  11   7   41.20    5.60
   3  11   7    3.00    2.60
  -4 -11  -7    9.40    4.00
   4  11   7   17.90    4.30
  -5 -11  -7   15.10    4.30
   5  11   7   12.10    4.10
   2  12   7   31.00    6.10
   3  12   7   28.90    5.30
   3   9  -8   14.30    6.90
   3   9  -8   24.40    5.50
   3   9  -8   18.30    5.60
  -3  -9   8   13.40    5.30
   2   9  -8   21.90    6.60
   2   9  -8   16.10    4.60
   2   9  -8    8.50    4.30
  -2  -9   8    6.80    4.20
   1   9  -8    2.90    3.40
   1   9  -8    1.60    6.00
  -1  -9   8    7.10    3.70
   4   8  -8   51.99    7.40
   4   8  -8   44.00    6.10
   4   8  -8   40.00    5.90
  -4  -8   8   37.30    6.60
   3   8  -8    0.10    2.90
   3   8  -8    7.30    3.40
   3   8  -8   -0.90    4.20
  -3  -8   8    1.80    3.10
   2   8  -8    9.40    3.20
   2   8  -8    5.70    4.80
   2   8  -8    7.30    3.20
  -2  -8   8    8.80    3.30
   1   8  -8   35.80    6.40
   1   8  -8   28.60    4.60
  -1  -8   8   29.00    4.40
   0   8  -8    3.50    2.90
   0   8  -8    4.60    4.80
   0  -8   8    4.10    3.10
  -1   8  -8   36.10    4.90
  -1   8  -8   48.90    8.00
   1  -8   8   36.10    5.30
   1  -8   8   47.30    5.90
  -2   8  -8   36.10    5.10
   2  -8   8   34.80    5.90
   5   7  -8   14.10    3.90
   5   7  -8    6.50    3.40
   5   7  -8    7.50    3.80
  -5  -7   8   12.50    5.10
   4   7  -8    9.60    3.10
   4   7  -8    1.80    2.90
   4   7  -8   10.20    3.40
  -4  -7   8   11.10    4.50
   3   7  -8   16.00    3.80
   3   7  -8   14.60    4.30
   3   7  -8    7.10    3.10
  -3  -7   8   11.90    4.20
   2   7  -8   43.90    5.40
   2   7  -8   54.49    5.90
   2   7  -8   45.00    6.00
  -2  -7   8   45.40    5.50
   1   7  -8   29.20    4.30
   1   7  -8   26.60    4.20
   1   7  -8   36.80    5.80
  -1  -7   8   20.30    3.70
   0   7  -8   25.70    4.00
   0   7  -8   24.40    5.20
   0  -7   8   25.10    3.90
   0  -7   8   31.90    4.40
  -1   7  -8   36.90    4.60
  -1   7  -8   34.00    6.40
   1  -7   8   32.60    4.40
   1  -7   8   34.80    4.80
  -2   7  -8    6.50    2.70
   2  -7   8    1.90    3.40
  -3   7  -8    4.10    2.80
   3  -7   8    6.10    4.10
   6   6  -8    5.30    4.10
   6   6  -8   -0.80    3.10
   6   6  -8    1.40    3.60
  -6  -6   8   -0.20    5.00
   5   6  -8   52.59    6.10
   5   6  -8   40.90    5.40
   5   6  -8   43.20    5.10
  -5  -6   8   50.39    6.60
   4   6  -8   63.39    6.40
   4   6  -8   57.59    6.20
   4   6  -8   60.99    5.80
  -4  -6   8   59.69    6.90
   3   6  -8    4.80    2.50
   3   6  -8    9.60    2.90
   3   6  -8    9.30    2.70
  -3  -6   8    4.90    3.30
   2   6  -8    3.90    2.10
   2   6  -8    1.10    1.90
   2   6  -8   -0.90    2.40
  -2  -6   8    1.50    2.40
   1   6  -8   14.70    3.00
   1   6  -8    8.20    2.60
   1   6  -8    5.20    3.00
  -1  -6   8    8.20    4.80
  -1  -6   8    6.70    2.40
   0   6  -8   21.90    3.40
   0   6  -8   14.60    3.80
   0  -6   8   15.50    3.30
   0  -6   8   17.00    3.10
  -1   6  -8    6.90    3.50
  -1   6  -8    3.30    2.20
   1  -6   8    2.60    2.20
   1  -6   8    2.20    2.50
  -2   6  -8   20.80    4.80
  -2   6  -8   20.70    3.50
   2  -6   8   26.00    4.30
   2  -6   8   19.60    3.50
  -3   6  -8   35.20    4.30
   3  -6   8   45.00    5.60
  -4   6  -8    1.00    2.40
   4  -6   8    3.50    3.70
   6   5  -8   11.20    3.50
  -6  -5   8    8.00    4.90
  -5  -5   8   69.29    7.30
  -5  -5   8   70.79    7.40
   4   5  -8   28.90    4.30
   4   5  -8   16.40    3.50
   4   5  -8   33.60    3.80
  -4  -5   8   29.80    4.80
   3   5  -8    8.10    2.20
   3   5  -8    7.90    2.40
   3   5  -8    8.80    2.60
  -3  -5   8   10.20    3.20
   2   5  -8  105.39    6.70
   2   5  -8  100.99    6.70
   2   5  -8  101.09    6.60
  -2  -5   8   85.69    6.40
   1   5  -8   70.39    5.20
   1   5  -8   66.89    5.00
   1   5  -8   49.99    5.20
  -1  -5   8   68.29    5.30
  -1  -5   8   71.49    5.30
   0   5  -8   -1.80    1.20
   0   5  -8   -1.80    2.10
   0   5  -8    0.10    1.50
   0  -5   8   -0.20    1.50
   0  -5   8    0.50    1.90
  -1   5  -8    8.80    3.10
  -1   5  -8    5.20    2.00
   1  -5   8    0.60    2.10
   1  -5   8    2.20    1.90
  -2   5  -8    7.60    3.70
  -2   5  -8    6.90    2.20
   2  -5   8    4.90    2.70
   2  -5   8    6.00    2.20
  -3   5  -8   42.50    4.90
  -3   5  -8   35.90    4.30
   3  -5   8   35.40    4.60
  -4   5  -8   23.30    3.70
   4  -5   8   34.00    4.60
  -5   5  -8    1.50    2.50
   5  -5   8    5.00    3.60
   6   4  -8   21.90    3.70
  -6  -4   8   22.40    5.10
   5   4  -8    1.70    1.90
  -5  -4   8   -0.50    2.90
  -5  -4   8    4.10    3.30
  -4  -4   8  198.98   11.30
  -4  -4   8  197.68   11.20
   3   4  -8   98.09    6.50
   3   4  -8   97.89    5.70
   3   4  -8  105.09    6.60
  -3  -4   8  109.99    7.40
   2   4  -8    3.10    1.60
   2   4  -8    7.90    2.10
   2   4  -8    4.40    1.60
  -2  -4   8    7.10    2.40
   1   4  -8   63.39    4.70
   1   4  -8   64.39    4.70
   1   4  -8   68.99    4.80
  -1  -4   8   78.09    5.10
  -1  -4   8   63.89    5.70
   0   4  -8    5.50    2.10
   0   4  -8    4.50    1.80
   0   4  -8    6.10    1.80
   0  -4   8    7.10    2.10
   0  -4   8    5.70    1.80
  -1   4  -8   42.10    4.20
  -1   4  -8   37.20    4.60
   1  -4   8   39.20    4.10
   1  -4   8   32.70    3.80
  -2   4  -8   68.49    6.40
  -2   4  -8   68.39    5.00
   2  -4   8   62.39    5.40
   2  -4   8   79.29    5.50
  -3   4  -8   29.10    3.60
  -3   4  -8   24.20    4.50
  -3   4  -8   23.50    3.20
   3  -4   8   34.10    4.30
  -4   4  -8   16.20    2.90
   4  -4   8   18.70    3.50
  -5   4  -8   37.10    4.20
   5  -4   8   33.20    4.70
   7   3  -8    3.50    3.90
   7   3  -8    5.50    3.70
  -7  -3   8    4.70    5.30
   6   3  -8    9.00    2.80
   6   3  -8    7.10    3.20
  -6  -3   8   10.50    4.30
   5   3  -8   49.80    4.20
   5   3  -8   50.89    5.60
  -5  -3   8   57.69    6.10
   4   3  -8   45.60    3.40
  -4  -3   8   38.70    4.60
  -4  -3   8   48.20    5.00
  -3  -3   8   97.79    6.80
  -3  -3   8   91.19    6.30
   2   3  -8  119.09    6.70
   2   3  -8  116.19    6.60
   2   3  -8  117.29    6.00
  -2  -3   8  131.39    7.70
  -2  -3   8  136.49    7.00
   1   3  -8   15.20    2.40
   1   3  -8   12.50    2.30
   1   3  -8   13.20    2.00
  -1  -3   8   15.40    2.70
  -1  -3   8   12.20    2.20
   0   3  -8   13.30    2.20
   0   3  -8   18.60    2.70
   0   3  -8   20.30    2.60
   0  -3   8   16.60    2.50
   0  -3   8   18.40    2.80
  -1   3  -8   32.90    3.80
  -1   3  -8   31.10    3.30
   1  -3   8   31.60    3.30
   1  -3   8   31.10    3.30
  -2   3  -8   45.00    4.60
  -2   3  -8   43.10    3.90
  -2   3  -8   38.70    3.70
   2  -3   8   44.70    4.40
  -3   3  -8   23.50    3.00
  -3   3  -8   29.00    3.30
  -3   3  -8   32.50    4.50
   3  -3   8   32.60    3.90
  -4   3  -8   31.90    3.90
  -4   3  -8   28.70    3.40
   4  -3   8   19.00    3.20
  -5   3  -8    5.60    2.30
   5  -3   8   -1.30    2.00
  -6   3  -8   23.00    4.00
   6  -3   8   28.30    4.60
   7   2  -8    5.70    3.30
   7   2  -8    7.80    4.00
  -7  -2   8   17.70    5.50
   6   2  -8   -0.10    2.00
   6   2  -8    6.90    2.90
  -6  -2   8    4.90    3.70
   5   2  -8    9.30    2.90
   5   2  -8    7.30    1.90
  -5  -2   8   14.30    3.50
   4   2  -8    0.90    1.70
   4   2  -8    1.40    1.10
  -4  -2   8    4.70    2.30
  -4  -2   8    6.30    2.60
   3   2  -8  117.69    6.90
  -3  -2   8  103.99    6.40
  -3  -2   8   93.19    6.10
   2   2  -8  497.55   21.20
   2   2  -8  493.45   21.20
  -2  -2   8  526.45   21.80
  -2  -2   8  512.05   22.30
   1   2  -8  458.75   19.70
   1   2  -8  477.35   19.70
   1   2  -8  458.05   19.20
  -1  -2   8  495.65   21.20
  -1  -2   8  489.15   20.70
   0   2  -8   48.10    3.60
   0   2  -8   53.09    3.80
   0   2  -8   50.59    3.70
   0  -2   8   56.39    4.10
   0  -2   8   58.49    4.30
  -1   2  -8  158.48    8.00
  -1   2  -8  144.59    7.40
   1  -2   8  156.88    8.20
   1  -2   8  164.28    8.10
  -2   2  -8  355.96   16.20
  -2   2  -8  355.36   15.40
  -2   2  -8  354.96   15.60
   2  -2   8  387.46   17.10
  -3   2  -8   23.10    3.70
  -3   2  -8   19.60    2.60
  -3   2  -8   27.90    3.20
   3  -2   8   24.40    3.10
  -4   2  -8   37.40    3.50
  -4   2  -8   37.50    5.20
  -4   2  -8   32.40    3.60
   4  -2   8   41.50    4.30
  -5   2  -8   18.70    2.90
   5  -2   8   23.50    3.60
   6  -2   8   76.49    6.80
   7   1  -8   15.10    4.20
   7   1  -8    6.30    3.30
  -7  -1   8   13.20    5.10
   6   1  -8   15.80    4.00
   6   1  -8   15.60    3.10
  -6  -1   8   17.90    4.40
   5   1  -8   46.20    3.90
   5   1  -8   37.90    4.70
  -5  -1   8   46.20    5.00
   4   1  -8   11.20    2.60
  -4  -1   8    8.70    2.70
  -3  -1   8  101.19    5.90
  -3  -1   8  119.09    6.50
  -3  -1   8  107.19    6.70
  -3  -1   8  111.69    6.70
  -2  -1   8  249.08   11.70
  -2  -1   8  245.98   11.60
  -2  -1   8  260.27   11.70
  -2  -1   8  250.97   11.40
   1   1  -8  174.78    8.00
   1   1  -8  162.38    7.20
   1   1  -8  158.58    7.10
   1   1  -8  176.18    8.00
  -1  -1   8  179.38    8.60
  -1  -1   8  170.08    8.70
  -1  -1   8  183.48    8.40
   0   1  -8  108.09    5.60
   0   1  -8  113.69    5.60
   0   1  -8   99.39    5.30
   0  -1   8  105.19    6.00
   0  -1   8  114.49    6.00
  -1   1  -8  200.08    9.20
  -1   1  -8  194.48    8.90
  -1   1  -8  191.98    9.10
   1  -1   8  230.28   10.80
  -2   1  -8   54.49    4.40
  -2   1  -8   58.59    4.00
  -2   1  -8   60.09    3.70
   2  -1   8   67.09    4.50
  -3   1  -8   16.00    2.40
  -3   1  -8   21.60    3.40
  -3   1  -8   19.10    2.30
   3  -1   8   16.80    2.60
  -4   1  -8   33.00    4.60
  -4   1  -8   38.40    3.50
  -4   1  -8   48.80    4.10
   4  -1   8   47.50    4.50
  -5   1  -8    2.90    2.40
   5  -1   8    6.10    2.00
   6  -1   8   10.20    3.00
   7  -1   8   26.30    5.40
   7   0  -8    3.10    3.80
  -7   0   8    0.20    4.30
   6   0  -8    5.10    2.60
   6   0  -8    5.00    2.60
  -6   0   8    9.30    3.50
   5   0  -8   29.10    4.20
   5   0  -8   23.50    3.00
  -5   0   8   23.20    3.90
   4   0  -8    2.00    1.20
  -4   0   8    1.30    2.10
  -4   0   8    3.50    2.10
  -3   0   8   24.40    2.60
  -3   0   8   15.40    2.50
  -3   0   8   19.60    3.00
  -3   0   8   19.00    2.90
  -2   0   8    8.00    1.80
  -2   0   8   10.00    2.10
  -2   0   8   10.90    1.90
  -2   0   8    7.20    2.00
  -1   0   8  228.78    9.70
  -1   0   8  191.78    9.50
  -1   0   8  200.58    9.60
  -1   0   8  208.48    9.70
   0   0  -8   25.80    2.30
   0   0  -8   29.90    2.40
   0   0  -8   20.70    1.90
   0   0   8   28.50    3.00
   0   0   8   29.60    2.70
   0   0   8   27.30    2.80
  -1   0  -8  227.58    9.60
  -1   0  -8  221.18   10.00
  -1   0  -8  212.18    9.90
   1   0   8  250.87   11.70
   1   0   8  264.67   11.40
  -2   0  -8  301.27   13.40
  -2   0  -8  286.57   12.90
  -2   0  -8  298.87   12.50
   2   0   8  345.37   15.20
  -3   0  -8   84.69    5.80
  -3   0  -8   76.59    4.90
   3   0   8   79.49    5.00
  -4   0  -8   24.60    4.00
  -4   0  -8   21.30    2.90
   4   0   8   22.90    2.90
  -5   0  -8   21.90    3.30
   5   0   8   21.90    3.00
   6   0   8   15.90    3.10
   6  -1  -8   37.00    4.70
   6  -1  -8   33.30    4.90
  -6   1   8   40.40    5.40
   5  -1  -8   23.20    3.30
  -5   1   8   21.00    4.30
  -5   1   8   20.30    3.70
   4  -1  -8   25.80    3.00
   4  -1  -8   20.70    2.60
  -4   1   8   18.80    3.50
  -4   1   8   27.20    3.60
   3  -1  -8  149.88    7.50
   3  -1  -8  145.39    6.60
  -3   1   8  164.38    9.30
  -3   1   8  177.88    8.70
  -2   1   8  550.54   23.10
  -2   1   8  538.65   22.30
  -2   1   8  543.15   22.50
  -2   1   8  515.75   22.20
   1  -1  -8  201.08    9.00
  -1   1   8  235.98   10.20
  -1   1   8  221.88   10.50
  -1   1   8  230.98   10.80
   0  -1  -8  524.55   20.70
   0  -1  -8  515.35   20.70
   0  -1  -8  493.55   20.80
   0  -1  -8  490.25   20.50
   0   1   8  571.64   23.20
   0   1   8  534.65   23.00
  -1  -1  -8   12.30    1.80
  -1  -1  -8   13.30    1.80
   1   1   8   15.60    2.10
   1   1   8   15.70    2.20
  -2  -1  -8  267.27   11.90
  -2  -1  -8  269.17   12.20
   2   1   8  295.07   13.50
   2   1   8  310.77   13.30
  -3  -1  -8   97.89    5.50
  -3  -1  -8   94.69    6.30
   3   1   8   95.99    5.70
   3   1   8   99.79    5.60
  -4  -1  -8    8.00    2.70
  -4  -1  -8    4.40    1.90
   4   1   8    5.50    1.80
  -5  -1  -8    6.70    2.50
   5   1   8    3.00    1.70
  -6  -1  -8   42.10    4.70
   6   1   8   29.00    3.80
   6  -2  -8   12.70    3.50
   6  -2  -8   11.00    3.30
  -6   2   8   18.30    4.30
   5  -2  -8    3.20    2.30
  -5   2   8    4.20    3.20
  -5   2   8    3.20    2.80
   4  -2  -8    8.20    2.10
   4  -2  -8    7.60    2.10
  -4   2   8    8.90    2.70
  -4   2   8   10.00    3.00
   3  -2  -8  244.48   11.20
   3  -2  -8  259.77   11.70
  -3   2   8  261.37   13.40
  -3   2   8  281.17   12.50
   2  -2  -8   81.99    5.30
   2  -2  -8   81.29    4.30
  -2   2   8   95.99    5.30
  -2   2   8   92.49    6.10
   1  -2  -8   78.39    4.10
   1  -2  -8   82.89    4.30
  -1   2   8   97.39    5.60
  -1   2   8  101.99    5.40
  -1   2   8  104.89    6.00
   0  -2  -8   25.20    2.30
   0  -2  -8   23.30    2.10
   0   2   8   21.50    2.60
   0   2   8   24.50    2.70
  -1  -2  -8   22.70    2.30
  -1  -2  -8   23.20    2.40
   1   2   8   29.00    3.00
   1   2   8   25.80    2.70
  -2  -2  -8   34.20    3.00
  -2  -2  -8   43.10    3.50
   2   2   8   38.90    3.40
   2   2   8   37.20    3.50
  -3  -2  -8  211.58    9.80
  -3  -2  -8  206.18   10.40
   3   2   8  214.68   10.30
   3   2   8  227.18   10.60
  -4  -2  -8   37.90    4.60
  -4  -2  -8   37.50    3.70
   4   2   8   30.00    3.20
   4   2   8   32.20    3.70
  -5  -2  -8   79.09    5.80
   5   2   8   76.59    5.80
   5   2   8   81.59    5.20
  -6  -2  -8    8.30    3.10
   6  -3  -8   -0.40    3.40
  -6   3   8   -1.80    2.90
  -6   3   8   -2.60    3.60
   5  -3  -8    0.90    2.70
   5  -3  -8   -1.30    2.10
  -5   3   8    3.00    3.20
  -5   3   8    4.10    3.00
   4  -3  -8   23.10    3.00
   4  -3  -8   14.40    2.90
  -4   3   8   20.20    3.90
  -4   3   8   21.20    3.50
   3  -3  -8    0.90    1.40
   3  -3  -8    2.30    1.60
  -3   3   8    5.50    2.20
  -3   3   8    2.70    2.00
   2  -3  -8  300.87   13.80
   2  -3  -8  332.97   14.20
  -2   3   8  341.17   16.20
  -2   3   8  360.66   16.20
   1  -3  -8  282.07   12.00
   1  -3  -8  278.77   12.30
  -1   3   8  299.57   13.30
  -1   3   8  298.07   13.90
   0  -3  -8  274.77   11.90
   0  -3  -8  279.07   12.10
   0   3   8  283.47   12.80
   0   3   8  291.27   13.30
  -1  -3  -8  107.79    5.80
  -1  -3  -8   99.79    5.40
   1   3   8  100.99    5.90
   1   3   8  106.19    5.70
  -2  -3  -8  119.59    6.80
  -2  -3  -8  125.79    6.40
   2   3   8  123.59    6.80
   2   3   8  119.19    6.30
  -3  -3  -8  325.77   14.70
  -3  -3  -8  309.07   14.00
   3   3   8  318.57   14.50
   3   3   8  320.27   14.20
  -4  -3  -8  275.57   12.60
  -4  -3  -8  269.27   13.60
   4   3   8  260.07   12.30
   4   3   8  282.17   13.10
  -5  -3  -8   42.50    4.40
   5   3   8   41.20    4.50
   5   3   8   33.20    3.50
  -6  -3  -8    8.60    3.20
   6   3   8    9.00    2.90
  -7  -3  -8   24.00    4.60
   7   3   8   24.90    4.60
   6  -4  -8   16.20    6.50
   5  -4  -8   24.80    3.90
   5  -4  -8   25.80    5.20
  -5   4   8   34.70    5.00
  -5   4   8   28.30    4.90
   4  -4  -8   46.50    4.60
   4  -4  -8   43.10    4.90
  -4   4   8   62.19    5.70
  -4   4   8   41.90    5.20
   3  -4  -8   31.40    4.00
   3  -4  -8   34.40    3.60
  -3   4   8   33.00    4.40
   2  -4  -8   97.49    5.70
   2  -4  -8   85.29    5.70
  -2   4   8   94.99    6.50
   1  -4  -8   41.80    3.70
   1  -4  -8   52.59    4.00
  -1   4   8   54.19    5.10
   0  -4  -8   61.29    4.50
   0  -4  -8   62.19    3.80
   0   4   8   65.39    4.40
   0   4   8   70.29    4.90
  -1  -4  -8   85.99    5.00
  -1  -4  -8   94.09    5.60
   1   4   8   86.79    5.10
   1   4   8   90.79    5.60
  -2  -4  -8   15.40    2.10
  -2  -4  -8   15.20    2.70
   2   4   8   14.90    2.60
   2   4   8   13.40    2.00
  -3  -4  -8  189.98    9.90
  -3  -4  -8  178.48    9.00
   3   4   8  179.68    8.70
   3   4   8  180.08    9.40
  -4  -4  -8   89.19    6.90
  -4  -4  -8   80.89    5.60
   4   4   8   73.99    4.70
   4   4   8   78.29    5.70
  -5  -4  -8    7.40    2.70
   5   4   8    4.00    2.30
   5   4   8    9.00    3.30
  -6  -4  -8    9.50    3.20
   6   4   8    4.40    2.60
  -7  -4  -8   13.20    4.00
   7   4   8    5.00    3.10
   8   4   8    5.80    4.00
   5  -5  -8   22.60    4.00
   5  -5  -8   12.70    5.20
  -5   5   8   21.80    4.50
   4  -5  -8   16.00    4.40
   4  -5  -8   20.30    3.40
  -4   5   8   19.30    4.00
   3  -5  -8    5.90    3.00
   3  -5  -8   10.40    2.40
  -3   5   8   10.00    2.80
   2  -5  -8   11.30    2.90
   2  -5  -8   15.00    2.50
  -2   5   8   14.90    2.90
   1  -5  -8  146.19    8.40
   1  -5  -8  151.78    7.90
  -1   5   8  144.29    8.60
   0  -5  -8   42.60    3.40
   0  -5  -8   33.50    3.40
   0  -5  -8   41.60    4.40
   0   5   8   37.00    4.20
  -1  -5  -8   90.89    5.20
  -1  -5  -8   89.79    6.20
   1   5   8   94.49    6.00
   1   5   8   85.79    5.20
  -2  -5  -8  112.39    7.10
  -2  -5  -8  104.99    6.10
   2   5   8  105.19    5.80
   2   5   8  104.39    6.60
  -3  -5  -8  169.48    9.60
  -3  -5  -8  166.78    8.50
   3   5   8  150.28    8.70
   3   5   8  157.38    7.80
  -4  -5  -8  214.18   10.70
  -4  -5  -8  228.38   12.10
   4   5   8  192.08   10.50
   4   5   8  200.28    9.40
  -5  -5  -8  104.09    6.90
   5   5   8  104.79    7.30
  -6  -5  -8   38.00    4.80
   6   5   8   34.30    4.80
  -7  -5  -8    9.30    3.90
   7   5   8   10.20    3.70
  -8  -5  -8   -3.00    4.60
   8   5   8    3.10    3.80
   5  -6  -8    3.90    3.40
   5  -6  -8    3.20    5.90
  -5   6   8    2.40    4.00
   4  -6  -8   30.00    6.00
   4  -6  -8   43.30    4.70
  -4   6   8   46.70    6.00
   3  -6  -8   21.00    3.30
   3  -6  -8   20.10    4.90
  -3   6   8   19.80    3.70
   2  -6  -8   29.70    3.50
   2  -6  -8   26.20    4.60
  -2   6   8   29.60    4.10
   1  -6  -8    0.60    2.30
   1  -6  -8    1.50    1.60
  -1   6   8   -1.80    1.50
   0  -6  -8   46.20    4.30
   0  -6  -8   59.59    5.70
   0   6   8   49.99    5.10
  -1  -6  -8   49.80    4.00
  -1  -6  -8   40.60    4.90
  -1  -6  -8   43.70    4.00
   1   6   8   41.00    4.50
  -2  -6  -8   32.00    3.50
  -2  -6  -8   34.80    4.60
   2   6   8   31.70    3.90
   2   6   8   18.90    2.60
  -3  -6  -8    9.70    2.10
  -3  -6  -8    9.30    3.20
   3   6   8    7.40    2.60
   3   6   8   11.90    2.10
  -4  -6  -8   15.90    2.80
  -4  -6  -8   20.10    4.50
   4   6   8   15.70    2.60
   4   6   8   10.50    2.90
  -5  -6  -8   15.50    3.20
   5   6   8   11.60    3.30
  -6  -6  -8    9.20    3.50
   6   6   8    5.60    3.20
  -7  -6  -8    4.20    3.90
   7   6   8    3.40    3.40
  -8  -6  -8   44.50    6.90
   8   6   8   52.59    7.20
   4  -7  -8   -0.10    2.40
   4  -7  -8    2.90    5.30
  -4   7   8   -2.10    2.60
   3  -7  -8   27.80    3.80
   3  -7  -8   22.10    5.60
  -3   7   8   29.50    4.60
   2  -7  -8   13.60    2.80
   2  -7  -8   17.20    4.80
  -2   7   8   10.70    3.00
   1  -7  -8   32.10    5.40
   1  -7  -8   27.30    3.50
  -1   7   8   31.30    4.30
   0  -7  -8   14.10    3.80
   0  -7  -8   10.30    2.40
   0   7   8    7.90    2.40
  -1  -7  -8   44.40    4.30
  -1  -7  -8   47.30    4.30
  -1  -7  -8   45.80    5.80
   1   7   8   54.19    5.30
  -2  -7  -8   76.19    5.10
  -2  -7  -8   63.09    4.80
  -2  -7  -8   75.39    7.30
   2   7   8   59.59    5.80
  -3  -7  -8  205.48   12.00
  -3  -7  -8  199.18   10.10
  -3  -7  -8  196.28    9.70
   3   7   8  170.98    9.90
  -4  -7  -8   97.69    6.50
   4   7   8   76.79    6.40
  -5  -7  -8   11.70    3.00
   5   7   8    8.00    3.30
  -6  -7  -8   21.70    4.50
   6   7   8   12.60    3.80
  -7  -7  -8    2.00    4.00
   7   7   8    4.40    3.70
   3  -8  -8   16.90    3.50
   3  -8  -8   11.00    6.00
  -3   8   8   13.20    3.90
   2  -8  -8   27.70    6.30
   2  -8  -8   26.80    4.10
  -2   8   8   29.70    4.80
   1  -8  -8   33.50    6.00
   1  -8  -8   25.90    3.90
  -1   8   8   34.30    4.80
   0  -8  -8    8.80    4.20
   0  -8  -8    8.80    2.60
   0   8   8    6.30    2.30
  -1  -8  -8   12.20    4.40
  -1  -8  -8   13.90    2.70
   1   8   8    8.60    2.70
  -2  -8  -8   14.40    2.80
  -2  -8  -8   16.80    2.80
  -2  -8  -8   15.90    4.40
   2   8   8   13.00    2.90
  -3  -8  -8   22.70    3.30
  -3  -8  -8   24.60    3.60
   3   8   8   21.20    3.70
  -4  -8  -8   17.20    3.20
   4   8   8   14.70    3.40
  -5  -8  -8   15.00    3.20
   5   8   8    6.40    3.20
  -6  -8  -8   14.60    4.10
   6   8   8    9.10    3.90
  -7  -8  -8    3.80    4.40
   7   8   8   -0.10    4.00
   2  -9  -8   18.50    6.90
   2  -9  -8   27.80    4.60
  -2   9   8   30.30    5.10
   1  -9  -8    0.30    2.50
   1  -9  -8    1.00    4.90
  -1   9   8   -0.90    2.40
   0  -9  -8    7.20    3.10
   0  -9  -8    8.30    4.90
   0   9   8    6.60    2.80
  -1  -9  -8   62.99    5.50
  -1  -9  -8   66.49    8.40
   1   9   8   67.49    6.80
  -2  -9  -8   36.10    4.00
  -2  -9  -8   36.90    4.90
   2   9   8   44.60    5.40
  -3  -9  -8   24.70    3.90
   3   9   8   23.60    4.20
  -4  -9  -8   50.49    5.60
   4   9   8   43.40    5.50
  -5  -9  -8   20.00    4.10
   5   9   8   11.40    3.50
  -6  -9  -8    5.20    3.40
   6   9   8   10.30    3.90
  -7  -9  -8   39.80    6.90
   7   9   8   20.70    5.90
   1 -10  -8   13.20    4.20
  -1  10   8   15.70    4.40
   0 -10  -8   33.80    4.80
   0  10   8   26.70    4.70
  -1 -10  -8    1.50    2.70
   1  10   8    4.80    2.90
  -2 -10  -8   70.09    6.30
   2  10   8   60.29    6.60
  -3 -10  -8   42.20    5.30
   3  10   8   36.30    5.20
  -4 -10  -8   85.09    7.60
   4  10   8   87.89    8.40
  -5 -10  -8   73.69    7.60
   5  10   8   52.09    6.70
  -6 -10  -8   11.40    4.20
   6  10   8    9.00    3.80
   0 -11  -8    3.10    3.70
   0  11   8    1.40    3.40
  -1 -11  -8   61.49    6.40
   1  11   8   56.09    7.00
   2  11   8   64.29    7.40
   3  11   8    3.00    2.90
  -4 -11  -8    5.10    3.80
   4  11   8    9.50    3.80
  -5 -11  -8   12.50    4.00
   5  11   8   10.60    4.40
   3   8  -9   32.00    5.40
   3   8  -9   36.30    5.80
   3   8  -9   20.00    5.90
  -3  -8   9   29.00    6.20
   2   8  -9   16.40    4.20
   2   8  -9   11.40    5.40
   2   8  -9   13.40    3.90
  -2  -8   9   12.50    3.90
   1   8  -9   47.10    7.60
   1   8  -9   32.80    5.20
  -1  -8   9   37.80    5.50
   0   8  -9   14.20    5.90
   0   8  -9   26.30    4.90
   0  -8   9   14.30    3.70
  -1   8  -9    8.30    6.50
  -1   8  -9    4.30    3.50
   1  -8   9    9.30    4.60
   1  -8   9    2.10    3.80
   4   7  -9   71.89    7.40
   4   7  -9   79.39    7.90
   4   7  -9   86.09    8.00
  -4  -7   9   85.99    8.90
   3   7  -9   82.39    8.00
   3   7  -9   80.89    7.70
   3   7  -9   77.49    7.70
  -3  -7   9   74.99    7.90
   2   7  -9    4.20    2.70
   2   7  -9   10.10    3.10
   2   7  -9    9.30    4.10
  -2  -7   9    3.90    2.80
   1   7  -9    1.80    4.00
   1   7  -9    6.50    2.90
   1   7  -9    4.10    2.70
  -1  -7   9    7.60    3.10
   0   7  -9   14.40    4.90
   0   7  -9   10.40    3.20
   0  -7   9    5.10    2.90
   0  -7   9    6.90    3.50
  -1   7  -9    5.00    4.60
  -1   7  -9    0.80    2.20
   1  -7   9    2.30    3.40
   1  -7   9    0.10    2.50
  -2   7  -9    2.40    2.40
   2  -7   9    3.60    3.80
   5   6  -9   31.50    5.00
   5   6  -9   21.60    4.40
   5   6  -9   20.10    3.90
  -5  -6   9   17.70    5.40
   4   6  -9  111.49    7.70
   4   6  -9   98.19    7.30
   4   6  -9   86.49    7.90
  -4  -6   9  101.69    8.90
   3   6  -9   19.10    3.70
   3   6  -9   18.00    3.80
   3   6  -9   21.00    4.00
  -3  -6   9   14.50    4.30
   2   6  -9   12.40    3.30
   2   6  -9   13.40    3.50
   2   6  -9   12.10    3.20
  -2  -6   9   14.90    3.80
   1   6  -9   16.20    4.10
   1   6  -9   11.40    2.90
   1   6  -9   15.80    3.10
  -1  -6   9    8.70    2.80
   0   6  -9   16.80    4.60
   0   6  -9   14.20    3.10
   0  -6   9   10.50    3.00
   0  -6   9   16.40    3.40
  -1   6  -9  101.59    6.90
  -1   6  -9   87.19    8.40
   1  -6   9   99.89    7.90
  -2   6  -9    2.00    3.90
  -2   6  -9    6.70    2.70
   2  -6   9    1.80    2.80
   2  -6   9    1.00    3.00
  -3   6  -9   31.60    4.40
   3  -6   9   33.80    5.30
  -6  -5   9    3.10    5.60
   5   5  -9    2.40    2.30
   5   5  -9   -1.90    2.80
   5   5  -9    0.40    2.60
  -5  -5   9   -0.90    3.60
   4   5  -9   47.50    5.20
   4   5  -9   44.70    5.20
   4   5  -9   49.30    4.80
  -4  -5   9   56.89    6.40
   3   5  -9   89.19    6.70
   3   5  -9   96.79    6.70
   3   5  -9   87.19    6.20
  -3  -5   9  100.19    8.10
   2   5  -9   12.80    2.80
   2   5  -9    8.10    2.40
   2   5  -9   10.80    2.70
  -2  -5   9   10.30    3.20
   1   5  -9   52.09    5.10
   1   5  -9   51.89    5.30
   1   5  -9   47.50    5.00
  -1  -5   9   49.10    5.10
  -1  -5   9   53.39    5.00
   0   5  -9   20.30    3.90
   0   5  -9   19.60    3.30
   0  -5   9   18.60    3.40
   0  -5   9   18.80    3.30
  -1   5  -9   23.30    3.40
  -1   5  -9   23.20    4.50
   1  -5   9   25.80    3.70
   1  -5   9   15.20    3.10
  -2   5  -9   25.70    3.70
  -2   5  -9   18.70    4.30
   2  -5   9   27.50    4.00
   2  -5   9   19.70    3.90
  -3   5  -9    3.00    4.90
  -3   5  -9    2.20    3.20
  -3   5  -9    2.20    2.30
   3  -5   9    0.90    2.90
  -4   5  -9   12.20    3.20
   4  -5   9   18.90    4.30
   6   4  -9   15.10    3.40
  -6  -4   9   18.80    5.40
   5   4  -9    9.00    2.60
  -5  -4   9    9.90    4.20
  -5  -4   9   12.10    4.40
   4   4  -9   72.39    6.50
   4   4  -9   63.39    6.20
   4   4  -9   74.19    5.10
  -4  -4   9   76.59    7.00
   3   4  -9   55.99    5.30
   3   4  -9   68.59    5.20
   3   4  -9   50.79    4.30
  -3  -4   9   54.59    5.60
   2   4  -9   81.29    5.80
   2   4  -9   82.39    5.80
   2   4  -9   83.39    5.40
  -2  -4   9   79.19    6.20
   1   4  -9   23.10    3.10
   1   4  -9   26.70    3.40
   1   4  -9   23.30    3.30
  -1  -4   9   27.00    3.30
  -1  -4   9   23.10    3.50
   0   4  -9   -1.50    1.30
   0   4  -9    2.30    1.70
   0   4  -9    1.60    2.00
   0  -4   9    3.40    1.80
   0  -4   9    0.10    2.00
  -1   4  -9  303.27   14.90
  -1   4  -9  300.07   14.20
   1  -4   9  274.17   13.50
   1  -4   9  298.77   13.70
  -2   4  -9  251.47   12.10
  -2   4  -9  248.88   13.20
  -2   4  -9  245.28   12.00
   2  -4   9  286.87   14.10
  -3   4  -9   20.90    3.60
  -3   4  -9   18.90    3.10
  -3   4  -9   19.60    4.60
   3  -4   9   20.00    3.70
  -4   4  -9    1.90    2.20
   4  -4   9    2.80    2.30
  -5   4  -9    8.20    3.30
   5  -4   9    6.10    3.10
   6   3  -9    3.80    2.30
  -6  -3   9   14.40    4.80
   5   3  -9    3.80    2.00
  -5  -3   9    0.50    3.00
   4   3  -9   30.70    2.90
  -4  -3   9   40.70    4.90
  -4  -3   9   55.09    5.70
   3   3  -9   56.79    5.20
   3   3  -9   53.89    3.70
   3   3  -9   58.09    5.30
  -3  -3   9   60.99    5.70
   2   3  -9   17.50    2.80
   2   3  -9   25.40    3.30
   2   3  -9   23.30    2.50
  -2  -3   9   24.00    3.00
  -2  -3   9   27.30    3.60
   1   3  -9  369.26   16.20
   1   3  -9  373.56   16.60
   1   3  -9  365.96   16.60
  -1  -3   9  360.76   17.00
  -1  -3   9  388.16   16.60
   0   3  -9    7.40    2.00
   0   3  -9   16.30    2.50
   0   3  -9   18.70    2.70
   0  -3   9   12.60    2.50
   0  -3   9   14.80    2.60
  -1   3  -9   65.69    5.50
  -1   3  -9   74.89    4.90
   1  -3   9   77.59    5.40
   1  -3   9   74.49    5.30
  -2   3  -9   20.20    3.00
  -2   3  -9   18.20    3.30
  -2   3  -9   13.40    2.40
   2  -3   9   22.20    3.30
  -3   3  -9   40.70    5.50
  -3   3  -9   41.80    4.00
  -3   3  -9   44.00    4.30
   3  -3   9   43.90    4.70
  -4   3  -9   31.10    4.10
  -4   3  -9   32.50    3.80
   4  -3   9   38.00    4.40
   5  -3   9    7.20    2.70
   6  -3   9    7.50    3.80
   6   2  -9   23.90    4.40
   6   2  -9   19.10    3.00
  -6  -2   9   38.40    6.00
   5   2  -9   13.50    3.60
   5   2  -9    9.90    2.00
  -5  -2   9   20.50    4.50
   4   2  -9   11.90    3.00
  -4  -2   9   12.60    3.40
  -4  -2   9   13.80    3.40
  -3  -2   9   97.29    6.60
  -3  -2   9  114.19    7.10
   2   2  -9   35.40    3.70
   2   2  -9   36.30    2.50
   2   2  -9   38.90    3.80
  -2  -2   9   34.30    3.90
  -2  -2   9   43.30    3.80
   1   2  -9   19.80    2.60
   1   2  -9   14.10    2.40
   1   2  -9   14.50    1.90
  -1  -2   9   18.10    2.90
  -1  -2   9   18.10    2.60
   0   2  -9   15.20    2.20
   0   2  -9   23.00    2.80
   0   2  -9   17.00    2.50
   0  -2   9   15.90    2.70
   0  -2   9   22.20    2.90
  -1   2  -9  189.08    8.80
  -1   2  -9  170.48    9.00
   1  -2   9  175.48    9.20
   1  -2   9  190.88    9.40
  -2   2  -9   86.59    5.70
  -2   2  -9   93.59    6.40
  -2   2  -9   84.69    5.30
   2  -2   9   99.79    6.20
  -3   2  -9   38.70    3.90
  -3   2  -9   37.90    3.60
  -3   2  -9   27.70    4.30
   3  -2   9   35.30    3.90
  -4   2  -9   28.40    3.70
  -4   2  -9   23.90    4.90
   4  -2   9   26.20    3.60
   5  -2   9   33.60    4.50
   6  -2   9   20.10    4.20
   6   1  -9    5.70    3.50
   6   1  -9    1.60    2.20
  -6  -1   9    0.50    3.60
   5   1  -9   19.90    3.70
   5   1  -9   20.90    2.60
  -5  -1   9   25.00    4.40
   4   1  -9   44.20    4.90
  -4  -1   9   52.89    5.50
  -3  -1   9   33.70    3.80
  -3  -1   9   27.80    3.10
  -3  -1   9   26.00    3.40
  -3  -1   9   28.70    3.80
  -2  -1   9    9.60    2.00
  -2  -1   9   11.80    2.50
  -2  -1   9   16.40    2.80
  -2  -1   9   14.20    2.50
   1   1  -9  583.54   23.80
   1   1  -9  576.64   23.80
   1   1  -9  552.24   23.00
  -1  -1   9  612.74   25.50
  -1  -1   9  606.84   25.70
   0   1  -9   73.49    4.40
   0   1  -9   62.09    3.90
   0   1  -9   65.99    4.30
   0  -1   9   80.79    5.20
   0  -1   9   72.59    4.90
  -1   1  -9   49.60    3.90
  -1   1  -9   61.49    3.90
  -1   1  -9   49.30    3.80
   1  -1   9   56.79    4.60
  -2   1  -9  114.69    6.60
  -2   1  -9  104.59    6.10
   2  -1   9  138.29    7.70
  -3   1  -9   39.50    4.70
  -3   1  -9   41.10    3.90
   3  -1   9   45.20    4.30
  -4   1  -9    8.20    3.30
  -4   1  -9    9.80    2.60
   4  -1   9    4.30    2.10
  -5   1  -9   12.80    3.30
   5  -1   9    9.60    2.70
   6  -1   9   16.30    3.60
   6   0  -9   24.40    4.30
   6   0  -9   20.70    3.70
  -6   0   9   25.80    4.80
   5   0  -9   65.59    4.80
   5   0  -9   65.49    6.40
  -5   0   9   87.29    7.20
  -4   0   9    3.00    2.60
  -4   0   9    0.60    2.30
  -3   0   9  186.58   10.20
  -3   0   9  200.58   10.10
  -3   0   9  200.58    9.60
  -2   0   9   33.30    3.20
  -2   0   9   28.70    3.40
  -2   0   9   38.60    3.60
  -2   0   9   34.10    3.30
   1   0  -9   84.59    4.80
   1   0  -9   71.39    4.70
  -1   0   9   90.19    5.30
  -1   0   9   82.89    5.10
  -1   0   9   76.09    5.00
   0   0  -9  331.37   14.00
   0   0  -9  335.97   14.50
   0   0   9  414.26   17.30
   0   0   9  393.66   17.50
  -1   0  -9   52.89    3.70
  -1   0  -9   54.89    3.80
   1   0   9   66.39    4.60
  -2   0  -9   70.79    4.50
  -2   0  -9   66.29    5.00
   2   0   9   63.99    4.40
  -3   0  -9    8.90    2.10
  -3   0  -9   11.10    2.60
   3   0   9    6.00    1.80
  -4   0  -9   -0.10    1.70
  -4   0  -9   -4.20    2.20
   4   0   9   -1.80    1.10
  -5   0  -9    7.00    2.80
   5   0   9    5.70    2.30
  -6   0  -9    3.40    5.90
   6   0   9   -2.50    2.10
   6  -1  -9   21.80    3.90
   6  -1  -9   24.80    4.60
  -6   1   9   27.50    5.10
   5  -1  -9   14.90    2.90
  -5   1   9   23.90    4.50
  -5   1   9    8.60    3.10
   4  -1  -9   37.10    4.50
   4  -1  -9   40.60    3.40
  -4   1   9   49.50    5.00
  -4   1   9   45.80    5.40
   3  -1  -9   34.20    3.30
  -3   1   9   50.79    4.40
  -3   1   9   42.50    4.70
   2  -1  -9   17.80    2.20
  -2   1   9   21.70    2.90
  -2   1   9   15.90    2.40
  -2   1   9   17.10    2.90
   1  -1  -9  206.18    9.50
  -1   1   9  220.78   10.30
  -1   1   9  214.58   10.50
   0  -1  -9    5.90    1.20
   0  -1  -9    6.60    1.60
   0   1   9    4.50    1.70
   0   1   9    5.80    1.80
  -1  -1  -9   17.30    2.20
  -1  -1  -9   21.10    2.30
   1   1   9   20.50    2.70
   1   1   9   25.40    2.80
  -2  -1  -9   20.90    2.80
  -2  -1  -9   20.80    2.50
   2   1   9   25.70    2.90
   2   1   9   24.90    2.90
  -3  -1  -9   54.59    4.20
  -3  -1  -9   55.49    5.10
   3   1   9   51.19    4.30
  -4  -1  -9   20.50    3.90
  -4  -1  -9   20.70    3.10
   4   1   9   16.80    2.80
  -5  -1  -9    3.30    2.60
   5   1   9    3.60    2.10
  -6  -1  -9    1.10    2.80
   6   1   9    0.00    2.10
   6  -2  -9    1.70    2.80
   6  -2  -9    2.50    2.80
  -6   2   9    6.50    4.10
   5  -2  -9    9.80    2.80
  -5   2   9   14.10    3.90
  -5   2   9   13.70    4.10
   4  -2  -9    4.40    1.90
   4  -2  -9    2.30    1.80
  -4   2   9    2.40    2.60
  -4   2   9    3.90    2.80
   3  -2  -9   29.20    3.10
   3  -2  -9   29.10    2.90
  -3   2   9   32.10    4.20
  -3   2   9   35.30    4.10
  -2   2   9   78.39    5.20
  -2   2   9   87.69    5.90
   1  -2  -9  427.56   18.00
   1  -2  -9  457.45   18.40
  -1   2   9  507.35   21.70
  -1   2   9  490.55   21.20
   0  -2  -9  180.38    8.40
   0  -2  -9  194.98    8.70
   0   2   9  217.48    9.90
   0   2   9  196.68   10.00
  -1  -2  -9   19.10    2.40
  -1  -2  -9   25.80    2.60
   1   2   9   23.80    2.90
   1   2   9   24.20    2.70
  -2  -2  -9  217.58   10.50
  -2  -2  -9  224.88   10.20
   2   2   9  257.47   11.80
   2   2   9  248.68   11.80
  -3  -2  -9  299.67   13.30
  -3  -2  -9  282.87   13.80
   3   2   9  337.87   14.70
   3   2   9  299.07   14.30
  -4  -2  -9    9.20    2.40
  -4  -2  -9   10.60    3.10
   4   2   9   12.60    2.30
   4   2   9   12.10    2.80
  -5  -2  -9   57.79    5.20
   5   2   9   54.09    4.80
  -6  -2  -9    5.70    3.00
   6   2   9    1.80    2.70
  -7  -2  -9   21.70    5.70
   6  -3  -9    3.60    4.30
  -6   3   9    2.30    4.90
   5  -3  -9   18.40    3.60
  -5   3   9   19.00    4.50
   4  -3  -9   31.70    3.70
   4  -3  -9   34.90    4.00
  -4   3   9   35.00    5.00
   3  -3  -9   49.70    4.50
   3  -3  -9   41.50    4.00
  -3   3   9   46.10    5.20
   2  -3  -9  171.98    8.50
   2  -3  -9  171.98    8.70
  -2   3   9  198.58   10.70
   1  -3  -9  173.88    8.60
   1  -3  -9  193.18    8.50
  -1   3   9  211.88   10.70
  -1   3   9  206.78   10.10
   0  -3  -9  210.58    9.50
   0  -3  -9  199.98    9.30
   0   3   9  208.28    9.90
   0   3   9  199.88   10.20
  -1  -3  -9   71.89    4.60
  -1  -3  -9   71.89    4.40
   1   3   9   77.69    5.10
   1   3   9   77.39    4.90
  -2  -3  -9   48.50    3.70
  -2  -3  -9   48.20    4.30
   2   3   9   52.79    4.20
   2   3   9   44.30    3.90
  -3  -3  -9  125.19    7.60
  -3  -3  -9  122.79    6.70
   3   3   9  126.59    7.40
   3   3   9  130.99    7.00
  -4  -3  -9   92.69    5.90
  -4  -3  -9   89.49    7.00
   4   3   9   99.69    6.40
   4   3   9   87.89    5.60
  -5  -3  -9    5.30    2.50
   5   3   9    4.90    1.90
   5   3   9    3.40    2.30
  -6  -3  -9   11.50    3.50
   6   3   9    8.90    3.40
  -7  -3  -9   39.00    5.60
   5  -4  -9   16.50    3.90
   5  -4  -9   17.30    4.20
  -5   4   9   17.60    4.70
   4  -4  -9   10.00    2.90
   4  -4  -9    7.60    2.50
  -4   4   9    6.70    3.30
   3  -4  -9   56.49    5.20
   3  -4  -9   54.79    4.80
  -3   4   9   50.19    5.70
   2  -4  -9   36.30    3.70
   2  -4  -9   41.40    4.10
  -2   4   9   32.40    4.30
   1  -4  -9   65.09    4.90
   1  -4  -9   78.29    4.80
  -1   4   9   81.19    5.90
   0  -4  -9   18.70    2.70
   0  -4  -9   23.10    2.50
   0   4   9   21.50    2.60
   0   4   9   24.90    3.40
  -1  -4  -9   47.80    3.60
  -1  -4  -9   50.99    4.20
   1   4   9   51.59    4.30
   1   4   9   54.49    3.90
  -2  -4  -9    1.80    1.60
  -2  -4  -9   -2.50    1.80
   2   4   9    0.40    1.60
   2   4   9    0.60    1.30
  -3  -4  -9   28.40    4.00
  -3  -4  -9   35.00    3.60
   3   4   9   33.70    3.30
   3   4   9   34.70    4.00
  -4  -4  -9   24.20    4.30
  -4  -4  -9   22.20    3.20
   4   4   9   22.40    2.70
   4   4   9   20.20    3.30
  -5  -4  -9   18.50    3.50
   5   4   9   17.40    3.50
   5   4   9   15.90    2.80
  -6  -4  -9    4.40    3.30
   6   4   9   10.70    3.30
  -7  -4  -9    9.80    4.20
   7   4   9    1.30    3.30
   5  -5  -9    5.30    3.10
   5  -5  -9   -1.40    4.80
  -5   5   9    6.40    3.70
   4  -5  -9   13.10    3.00
   4  -5  -9   15.00    4.30
  -4   5   9   12.50    3.50
   3  -5  -9   23.00    4.30
   3  -5  -9   23.60    3.40
  -3   5   9   17.00    3.80
   2  -5  -9    4.80    2.50
   2  -5  -9    5.00    1.90
  -2   5   9    3.90    2.30
   1  -5  -9   15.70    3.20
   1  -5  -9   16.00    2.40
  -1   5   9   12.20    2.90
   0  -5  -9  115.09    6.60
   0  -5  -9   99.39    6.90
   0  -5  -9  120.59    6.40
   0   5   9  107.39    7.00
  -1  -5  -9   74.89    5.60
  -1  -5  -9   65.29    4.60
   1   5   9   72.79    4.70
   1   5   9   66.09    5.30
  -2  -5  -9   18.70    2.50
  -2  -5  -9   17.40    3.30
   2   5   9   14.60    2.80
   2   5   9   15.60    2.20
  -3  -5  -9   81.19    5.30
  -3  -5  -9   82.99    6.60
   3   5   9   91.59    6.20
   3   5   9   75.09    5.00
  -4  -5  -9   87.49    7.50
  -4  -5  -9   91.19    6.10
   4   5   9   89.59    5.40
   4   5   9   86.79    6.50
  -5  -5  -9   16.10    3.30
   5   5   9   13.20    3.30
  -6  -5  -9    4.00    3.20
   6   5   9   10.40    3.20
  -7  -5  -9   32.60    5.50
   7   5   9   26.60    5.00
   4  -6  -9   15.00    5.40
   4  -6  -9   10.80    3.30
  -4   6   9   15.00    3.80
   3  -6  -9   49.50    6.50
   3  -6  -9   52.09    5.10
  -3   6   9   36.30    4.90
   2  -6  -9   59.29    6.50
   2  -6  -9   62.29    5.30
  -2   6   9   50.09    5.70
   1  -6  -9    0.20    1.60
   1  -6  -9   -1.00    2.40
  -1   6   9    1.40    2.10
   0  -6  -9   28.40    4.60
   0  -6  -9   34.30    3.70
   0   6   9   26.90    3.90
  -1  -6  -9   10.80    2.50
  -1  -6  -9   10.30    2.30
  -1  -6  -9    5.90    2.80
   1   6   9    6.30    2.40
  -2  -6  -9   82.79    5.50
  -2  -6  -9   88.09    7.10
   2   6   9   79.59    4.90
   2   6   9   68.29    5.80
  -3  -6  -9   49.90    6.00
  -3  -6  -9   55.99    4.80
   3   6   9   52.19    4.30
   3   6   9   52.09    5.30
  -4  -6  -9    8.00    3.30
  -4  -6  -9    0.70    1.80
   4   6   9    3.50    1.70
   4   6   9    3.50    2.40
  -5  -6  -9    0.70    2.50
   5   6   9    3.10    2.50
  -6  -6  -9   21.10    4.40
   6   6   9   19.80    4.60
  -7  -6  -9   15.50    4.70
   7   6   9    2.90    3.70
   4  -7  -9   11.60    6.20
   4  -7  -9    5.00    3.30
  -4   7   9    7.80    4.10
   3  -7  -9   17.40    3.40
   3  -7  -9   24.90    6.10
  -3   7   9   14.00    3.70
   2  -7  -9    9.60    4.50
   2  -7  -9    9.30    2.60
  -2   7   9    9.60    2.90
   1  -7  -9   60.09    5.20
   1  -7  -9   52.59    6.60
  -1   7   9   59.19    6.20
   0  -7  -9    7.60    3.70
   0  -7  -9    6.40    2.40
   0   7   9    7.70    2.60
  -1  -7  -9   52.29    4.70
  -1  -7  -9   62.99    6.70
  -1  -7  -9   72.69    6.70
   1   7   9   59.69    5.90
  -2  -7  -9   69.39    5.50
  -2  -7  -9   68.39    6.90
  -2  -7  -9   76.09    5.30
   2   7   9   57.19    5.70
  -3  -7  -9   41.70    5.80
  -3  -7  -9   44.10    4.50
   3   7   9   46.40    4.20
   3   7   9   48.60    5.50
  -4  -7  -9   10.90    2.70
   4   7   9    8.80    3.10
  -5  -7  -9   32.20    4.20
   5   7   9   29.40    4.80
  -6  -7  -9    5.20    3.50
   6   7   9   -2.70    3.20
  -7  -7  -9   11.10    4.80
   7   7   9    5.10    4.40
   3  -8  -9   75.09    6.90
   3  -8  -9   81.29    9.50
  -3   8   9   95.59    9.10
   2  -8  -9    8.10    2.70
   2  -8  -9   12.50    5.40
  -2   8   9   10.10    3.20
   1  -8  -9    6.60    4.70
   1  -8  -9    9.30    2.80
  -1   8   9    5.90    2.80
   0  -8  -9   21.70    3.60
   0  -8  -9   30.30    5.50
   0   8   9   26.50    4.20
  -1  -8  -9    9.60    2.50
  -1  -8  -9   12.60    4.20
   1   8   9    6.30    2.60
  -2  -8  -9   50.79    4.90
  -2  -8  -9   60.29    5.20
  -2  -8  -9   61.39    7.30
   2   8   9   52.59    5.70
  -3  -8  -9   30.60    3.70
  -3  -8  -9   35.90    4.20
  -3  -8  -9   40.40    6.30
   3   8   9   32.90    4.80
  -4  -8  -9   77.69    6.10
   4   8   9   63.39    7.00
  -5  -8  -9    5.00    2.80
   5   8   9    2.20    3.10
  -6  -8  -9   21.10    4.20
   6   8   9   13.50    4.40
  -7  -8  -9    2.40    4.40
   7   8   9   -1.60    3.90
   2  -9  -9    6.90    6.40
   2  -9  -9   10.60    3.80
  -2   9   9    9.80    4.10
   1  -9  -9   27.80    4.60
   1  -9  -9   20.30    6.20
  -1   9   9   12.40    3.70
   0  -9  -9   33.20    4.50
   0  -9  -9   27.70    6.30
   0   9   9   39.00    5.70
  -1  -9  -9   12.40    4.90
  -1  -9  -9   10.70    3.10
   1   9   9   21.40    4.20
  -2  -9  -9   -4.00    2.10
  -2  -9  -9    0.60    4.60
   2   9   9    0.90    2.00
  -3  -9  -9   -1.00    2.10
   3   9   9    0.90    2.10
  -4  -9  -9    4.10    2.80
   4   9   9    7.10    3.10
  -5  -9  -9    4.60    2.70
   5   9   9    5.40    4.40
  -6  -9  -9    5.00    3.40
   6   9   9    4.00    4.00
   1 -10  -9    4.20    7.10
   1 -10  -9    2.80    3.50
  -1  10   9    8.70    3.90
   0 -10  -9   10.80    3.70
   0 -10  -9    8.40    7.20
   0  10   9   10.30    3.70
  -1 -10  -9   44.00    5.10
   1  10   9   41.80    5.90
  -2 -10  -9    7.60    3.00
   2  10   9    9.50    3.40
  -3 -10  -9    6.70    3.50
   3  10   9    8.00    3.10
  -4 -10  -9    2.10    3.00
   4  10   9    6.90    3.30
  -5 -10  -9    0.90    3.00
   5  10   9    3.70    2.80
  -6 -10  -9    5.40    4.30
   6  10   9    1.50    4.00
  -1 -11  -9   26.70    5.00
   1  11   9   21.10    5.00
   2  11   9   11.40    4.20
   3  11   9   11.10    3.90
  -4 -11  -9   39.30    6.20
   4  11   9   37.70    6.10
   3   7 -10   47.80    6.10
   3   7 -10   38.00    5.80
   3   7 -10   41.20    5.70
  -3  -7  10   33.50    6.10
   2   7 -10   59.59    7.20
   2   7 -10   51.49    6.30
   2   7 -10   59.39    6.50
  -2  -7  10   43.90    5.80
   1   7 -10    7.70    4.70
   1   7 -10   15.30    3.90
  -1  -7  10   10.90    3.50
   0   7 -10    8.00    3.20
   0   7 -10    6.70    4.80
   0  -7  10    4.80    3.00
  -1   7 -10   13.10    3.50
  -1   7 -10    7.70    5.30
   1  -7  10   13.40    3.70
   1  -7  10   15.70    4.30
   4   6 -10   29.00    4.70
   4   6 -10   32.80    5.10
   4   6 -10   24.80    4.20
  -4  -6  10   33.60    6.00
   3   6 -10   15.90    3.70
   3   6 -10    9.10    3.20
   3   6 -10    9.90    3.30
  -3  -6  10   11.80    4.40
   2   6 -10   10.30    3.10
   2   6 -10    6.40    2.80
   2   6 -10    8.40    3.00
  -2  -6  10    6.00    3.70
   1   6 -10   13.80    4.20
   1   6 -10   10.80    3.10
   1   6 -10    7.40    2.80
  -1  -6  10    6.70    2.80
   0   6 -10   17.00    3.50
   0   6 -10   19.50    4.60
   0  -6  10    8.40    3.40
   0  -6  10   19.20    3.50
  -1   6 -10  117.09    7.90
  -1   6 -10  126.39   10.30
   1  -6  10  131.89    8.40
   1  -6  10  118.39    8.60
  -2   6 -10   34.50    5.00
  -2   6 -10   30.00    6.00
  -2   6 -10   29.30    4.40
   2  -6  10   33.90    5.30
  -3   6 -10   18.00    4.00
   3  -6  10    7.00    4.50
   5   5 -10    0.00    2.80
   5   5 -10    1.70    2.40
   5   5 -10    1.40    3.00
  -5  -5  10    0.30    4.10
   4   5 -10   44.30    5.40
   4   5 -10   43.20    4.70
   4   5 -10   43.10    5.30
  -4  -5  10   53.69    6.60
   3   5 -10   97.69    7.30
   3   5 -10   91.59    7.10
   3   5 -10   91.39    6.60
  -3  -5  10  104.49    8.70
   2   5 -10   11.10    2.80
   2   5 -10    9.70    2.60
   2   5 -10    9.20    2.90
  -2  -5  10    8.30    3.40
   1   5 -10   36.90    4.40
   1   5 -10   28.70    4.00
   1   5 -10   26.60    4.10
  -1  -5  10   28.50    4.80
  -1  -5  10   30.60    4.30
   0   5 -10   23.50    4.20
   0   5 -10   22.90    3.70
   0  -5  10   18.50    3.40
   0  -5  10   34.10    4.20
  -1   5 -10   70.99    6.10
  -1   5 -10   71.09    7.20
   1  -5  10   75.09    6.40
   1  -5  10   62.59    5.80
  -2   5 -10    3.60    2.30
  -2   5 -10    4.80    3.00
  -2   5 -10    9.80    4.10
   2  -5  10    5.90    3.20
  -3   5 -10    9.20    3.70
  -3   5 -10    4.30    2.80
  -3   5 -10   15.70    6.00
   3  -5  10   11.00    3.90
  -4   5 -10    9.40    3.90
   4  -5  10    7.80    4.40
   5   4 -10   34.30    3.90
   5   4 -10   31.60    5.00
  -5  -4  10   47.40    7.10
   4   4 -10   65.59    6.20
   4   4 -10   57.09    6.00
   4   4 -10   59.39    4.90
  -4  -4  10   74.89    7.10
   3   4 -10   20.00    3.00
   3   4 -10   24.00    3.70
   3   4 -10   18.20    3.50
  -3  -4  10   21.50    4.10
   2   4 -10   20.10    3.40
   2   4 -10   17.00    2.80
   2   4 -10   21.50    3.50
  -2  -4  10   19.70    3.80
   1   4 -10   -0.30    1.60
   1   4 -10   -0.20    1.60
   1   4 -10    0.40    1.80
  -1  -4  10    0.80    2.10
  -1  -4  10    1.60    2.50
   0   4 -10   -0.60    1.70
   0   4 -10    2.50    2.30
   0   4 -10    2.10    1.80
   0  -4  10    3.20    2.60
   0  -4  10    2.50    1.90
  -1   4 -10   72.09    6.50
  -1   4 -10   77.99    5.70
   1  -4  10   85.99    6.40
   1  -4  10   76.49    6.00
  -2   4 -10   80.19    5.90
  -2   4 -10   75.89    7.10
  -2   4 -10   78.89    6.40
   2  -4  10   89.19    7.10
  -3   4 -10   10.60    3.20
  -3   4 -10   12.90    3.30
  -3   4 -10    9.60    4.50
   3  -4  10    6.40    3.10
   4  -4  10   40.10    5.30
   6   3 -10   16.80    3.30
  -6  -3  10   20.30    5.50
   5   3 -10   26.60    3.00
  -5  -3  10   35.20    5.70
  -4  -3  10   41.20    5.70
  -4  -3  10   39.20    5.10
   3   3 -10   37.70    4.40
   3   3 -10   38.20    4.40
   3   3 -10   34.80    3.10
  -3  -3  10   29.80    4.20
   2   3 -10   25.30    3.40
   2   3 -10   27.40    3.40
   2   3 -10   28.10    2.90
  -2  -3  10   23.40    3.90
  -2  -3  10   32.30    4.50
   1   3 -10    1.20    1.60
   1   3 -10    0.40    1.60
   1   3 -10    1.00    1.40
  -1  -3  10    1.40    2.10
  -1  -3  10    6.90    2.30
   0   3 -10    4.50    1.90
   0   3 -10    3.20    1.80
   0   3 -10    6.90    2.10
   0  -3  10    2.20    2.10
   0  -3  10   -0.40    1.80
  -1   3 -10   35.60    3.70
  -1   3 -10   23.00    3.50
   1  -3  10   27.80    3.70
   1  -3  10   31.70    4.00
  -2   3 -10    8.00    2.50
  -2   3 -10    9.20    3.30
  -2   3 -10    4.90    2.50
   2  -3  10    3.20    2.50
  -3   3 -10   17.80    3.30
  -3   3 -10   20.10    4.20
   3  -3  10   19.70    3.60
  -4   3 -10   34.70    4.50
   4  -3  10   29.30    4.20
   5  -3  10    2.40    2.80
   6   2 -10   41.40    4.30
   6   2 -10   46.00    6.60
  -6  -2  10   73.29    7.90
   5   2 -10   19.20    2.60
  -5  -2  10   29.60    5.00
  -4  -2  10    4.50    3.00
  -3  -2  10   -1.40    1.90
  -3  -2  10    1.40    2.70
   2   2 -10    4.40    1.80
   2   2 -10    3.30    1.20
   2   2 -10    6.00    2.00
  -2  -2  10    4.90    2.10
  -2  -2  10    4.80    2.30
   1   2 -10   26.10    3.30
   1   2 -10   21.80    3.10
   1   2 -10   23.90    2.50
  -1  -2  10   24.80    3.20
  -1  -2  10   19.90    3.30
   0   2 -10   53.89    4.10
   0   2 -10   61.39    4.60
   0   2 -10   58.59    4.80
   0  -2  10   64.69    5.10
   0  -2  10   56.09    5.20
  -1   2 -10   19.00    2.90
  -1   2 -10   25.50    3.20
   1  -2  10   23.50    3.20
  -2   2 -10  140.69    7.80
  -2   2 -10  137.79    8.50
   2  -2  10  157.98    9.00
  -3   2 -10   16.00    3.00
  -3   2 -10   14.70    3.70
   3  -2  10   13.50    2.80
  -4   2 -10    4.10    2.60
  -4   2 -10    4.20    3.80
   4  -2  10    2.90    2.00
  -5   2 -10    9.00    5.30
   5  -2  10   13.70    3.50
   6  -2  10   24.50    4.60
   6   1 -10   30.10    5.50
   6   1 -10   29.30    3.50
  -6  -1  10   43.40    6.50
   5   1 -10    6.90    1.90
   5   1 -10    3.70    2.70
  -5  -1  10   12.20    3.90
   4   1 -10    3.70    2.70
  -4  -1  10    5.90    3.00
  -3  -1  10   12.00    4.60
  -3  -1  10   12.10    3.10
  -3  -1  10    7.30    2.70
   2   1 -10   28.30    3.40
   2   1 -10   22.50    3.30
  -2  -1  10   24.80    3.20
  -2  -1  10   17.80    3.00
   1   1 -10   64.69    5.00
   1   1 -10   77.09    5.30
   1   1 -10   61.99    3.60
  -1  -1  10   78.19    5.30
  -1  -1  10   77.99    5.50
   0   1 -10  122.59    6.20
   0  -1  10  138.69    8.10
   0  -1  10  158.28    8.10
  -1   1 -10   86.49    5.50
  -1   1 -10   89.89    5.50
   1  -1  10   98.99    6.30
  -2   1 -10  101.09    6.00
  -2   1 -10   97.39    6.50
   2  -1  10  114.39    7.00
  -3   1 -10    1.20    2.00
  -3   1 -10    2.30    2.70
   3  -1  10   -0.80    1.60
  -4   1 -10    0.10    3.10
  -4   1 -10   -1.90    2.00
   4  -1  10   -1.40    1.60
  -5   1 -10   16.90    3.80
   5  -1  10   24.30    3.80
   6  -1  10    0.30    2.60
   6   0 -10   -1.60    2.70
   6   0 -10    5.40    2.70
  -6   0  10    0.50    4.10
   5   0 -10   70.89    5.10
  -5   0  10   71.89    6.80
  -4   0  10    9.40    3.40
  -4   0  10    8.20    3.20
  -3   0  10    6.40    2.70
  -3   0  10    4.80    2.00
  -3   0  10    3.10    2.30
  -2   0  10    8.00    2.10
  -2   0  10    7.70    2.10
  -2   0  10   11.80    2.50
   1   0 -10   96.59    4.50
  -1   0  10  128.79    7.20
  -1   0  10  131.79    7.40
   0   0 -10   26.40    2.80
   0   0 -10   21.40    2.20
   0   0  10   31.70    3.50
  -1   0 -10   73.39    4.60
  -1   0 -10   67.59    4.40
   1   0  10   94.39    5.90
  -2   0 -10  205.08   10.10
  -2   0 -10  217.18   10.70
   2   0  10  239.28   11.60
  -3   0 -10  181.98    9.20
  -3   0 -10  173.48   10.00
   3   0  10  208.68   10.60
  -4   0 -10    7.60    3.30
  -4   0 -10    6.10    2.40
   4   0  10    6.70    2.40
  -5   0 -10    3.20    2.80
   5   0  10    3.90    2.50
  -6   0 -10   25.20    4.80
   6   0  10   24.50    4.20
   6  -1 -10    7.10    3.40
   6  -1 -10    4.20    3.80
  -6   1  10    6.70    5.20
   5  -1 -10    1.50    2.00
  -5   1  10    3.70    3.50
  -5   1  10    3.80    4.10
   4  -1 -10   37.90    3.30
  -4   1  10   39.40    5.20
   3  -1 -10   11.70    2.40
  -3   1  10   11.60    3.10
   2  -1 -10   64.59    4.50
  -2   1  10   63.19    5.30
  -2   1  10   62.19    4.70
   1  -1 -10   76.29    4.50
   1  -1 -10   65.39    3.50
  -1   1  10   89.99    5.80
  -1   1  10   88.49    5.70
   0  -1 -10  467.75   19.20
   0  -1 -10  442.06   18.80
   0   1  10  523.25   22.90
   0   1  10  550.54   22.90
  -1  -1 -10   24.70    2.70
  -1  -1 -10   20.80    2.50
   1   1  10   23.10    3.10
  -2  -1 -10  179.08    9.10
  -2  -1 -10  178.08    8.80
   2   1  10  200.98   10.00
  -3  -1 -10   68.29    5.90
  -3  -1 -10   55.19    4.60
   3   1  10   63.99    4.90
  -4  -1 -10   13.10    3.60
  -4  -1 -10   12.50    2.80
   4   1  10   14.40    2.70
  -5  -1 -10   21.30    3.60
   5   1  10   16.50    3.10
  -6  -1 -10    3.40    3.30
   6   1  10   -0.40    2.40
   5  -2 -10    6.00    2.60
  -5   2  10    9.90    4.00
   4  -2 -10   22.90    3.00
   4  -2 -10   23.00    3.40
  -4   2  10   23.20    4.40
   3  -2 -10    6.00    1.70
   3  -2 -10    4.30    1.80
  -3   2  10    3.20    2.50
   2  -2 -10   29.20    2.50
  -2   2  10   37.20    3.80
  -2   2  10   31.80    4.00
   1  -2 -10   26.60    2.80
   1  -2 -10   29.30    2.40
  -1   2  10   35.70    3.70
  -1   2  10   41.40    4.20
   0  -2 -10   38.60    2.90
   0  -2 -10   32.30    3.20
   0   2  10   49.10    4.50
   0   2  10   46.10    4.10
  -1  -2 -10  103.69    5.70
  -1  -2 -10  104.09    5.70
   1   2  10  122.09    6.90
   1   2  10  122.99    7.00
  -2  -2 -10  107.29    6.00
  -2  -2 -10  106.19    6.40
   2   2  10  124.89    7.00
   2   2  10  129.29    7.20
  -3  -2 -10   81.29    5.50
  -3  -2 -10   79.19    6.10
   3   2  10   82.89    5.50
   3   2  10   91.39    9.60
  -4  -2 -10   21.40    3.30
  -4  -2 -10   21.00    4.00
   4   2  10   18.70    2.80
  -5  -2 -10   11.90    3.10
   5   2  10   10.60    2.70
  -6  -2 -10   13.90    3.80
   6   2  10   14.30    3.60
  -7  -2 -10    5.80    4.90
   5  -3 -10   -0.90    2.50
  -5   3  10    6.60    4.10
   4  -3 -10   11.50    2.70
   4  -3 -10   10.70    2.80
  -4   3  10    9.90    3.40
   3  -3 -10   56.99    4.70
   3  -3 -10   51.19    4.80
  -3   3  10   57.79    6.10
   2  -3 -10   64.89    4.60
   2  -3 -10   59.29    4.40
  -2   3  10   80.99    6.40
   1  -3 -10    3.70    1.50
   1  -3 -10    2.60    1.70
  -1   3  10    3.50    2.00
  -1   3  10    2.80    1.70
   0  -3 -10  185.68    9.00
   0  -3 -10  194.38    9.00
   0   3  10  196.08    9.90
   0   3  10  206.98   10.40
  -1  -3 -10   55.59    3.80
  -1  -3 -10   46.40    4.00
   1   3  10   67.29    5.10
   1   3  10   60.29    4.50
  -2  -3 -10    5.70    2.10
  -2  -3 -10    5.00    1.80
   2   3  10   10.10    2.30
   2   3  10    6.40    1.90
  -3  -3 -10   34.00    3.60
  -3  -3 -10   35.30    4.30
   3   3  10   36.10    3.70
   3   3  10   41.40    4.30
  -4  -3 -10    7.70    3.10
  -4  -3 -10   12.80    2.80
   4   3  10    8.50    2.30
   4   3  10   13.30    3.00
  -5  -3 -10   16.50    3.50
   5   3  10   15.30    2.70
  -6  -3 -10    8.90    3.60
  -7  -3 -10    3.60    4.30
   5  -4 -10    1.10    3.50
  -5   4  10    5.30    4.20
   4  -4 -10   13.10    3.30
   4  -4 -10   11.30    2.90
  -4   4  10   13.80    4.10
   3  -4 -10   32.40    3.70
   3  -4 -10   30.00    4.00
  -3   4  10   31.00    5.00
   2  -4 -10  213.78   10.80
   2  -4 -10  220.78   10.80
  -2   4  10  260.27   13.50
   1  -4 -10   30.60    3.40
   1  -4 -10   17.40    2.90
  -1   4  10   29.00    4.00
   0  -4 -10   34.00    3.20
   0  -4 -10   29.50    3.40
   0   4  10   31.80    4.00
   0   4  10   32.20    3.50
  -1  -4 -10   34.80    3.90
  -1  -4 -10   34.10    3.30
   1   4  10   31.00    3.30
   1   4  10   30.00    3.80
  -2  -4 -10    0.40    2.00
  -2  -4 -10    2.40    1.50
   2   4  10    0.70    1.30
   2   4  10    3.50    1.90
  -3  -4 -10   98.59    7.30
  -3  -4 -10   98.99    6.00
   3   4  10   99.89    6.70
   3   4  10  104.39    6.10
  -4  -4 -10   51.59    6.00
  -4  -4 -10   50.89    4.70
   4   4  10   49.60    5.40
   4   4  10   53.79    4.70
  -5  -4 -10    0.90    2.50
   5   4  10    4.30    2.10
   5   4  10    5.80    2.80
  -6  -4 -10   23.90    4.50
   6   4  10   24.30    4.70
  -7  -4 -10    8.20    4.40
   4  -5 -10   23.40    3.90
   4  -5 -10   24.60    4.40
  -4   5  10   28.20    5.60
   3  -5 -10   34.20    4.70
   3  -5 -10   32.80    4.00
  -3   5  10   41.40    5.80
   2  -5 -10   24.50    3.70
   2  -5 -10   21.80    3.30
  -2   5  10   19.70    4.00
   1  -5 -10    6.60    2.40
   1  -5 -10   10.90    2.30
  -1   5  10    8.30    2.90
   0  -5 -10   20.90    3.10
   0  -5 -10   23.10    3.60
   0   5  10   26.90    3.90
  -1  -5 -10   -0.90    2.00
  -1  -5 -10    2.70    1.70
   1   5  10    5.10    2.40
   1   5  10    1.50    1.60
  -2  -5 -10    0.90    1.60
  -2  -5 -10    2.20    2.30
   2   5  10    1.00    1.40
   2   5  10    2.20    2.00
  -3  -5 -10   23.90    4.30
  -3  -5 -10   29.50    3.50
   3   5  10   25.50    3.20
   3   5  10   33.10    4.30
  -4  -5 -10   16.50    2.90
  -4  -5 -10   20.70    4.50
   4   5  10   17.20    3.60
   4   5  10   14.00    2.50
  -5  -5 -10   40.80    4.90
   5   5  10   42.80    5.30
  -6  -5 -10   12.80    4.00
   6   5  10    8.30    3.70
  -7  -5 -10    8.20    4.60
   7   5  10    0.30    3.80
   4  -6 -10   16.90    3.80
   4  -6 -10   16.50    5.30
  -4   6  10   11.60    4.20
   3  -6 -10    7.90    2.60
   3  -6 -10    5.90    4.30
  -3   6  10    2.10    2.70
   2  -6 -10   73.09    6.20
   2  -6 -10   88.49    8.00
  -2   6  10   66.69    6.80
   1  -6 -10   28.90    3.60
   1  -6 -10   26.70    4.60
  -1   6  10   18.30    3.80
   0  -6 -10   90.39    7.20
   0  -6 -10   75.89    5.80
   0   6  10   97.29    7.20
  -1  -6 -10   61.89    5.30
  -1  -6 -10   68.59    5.10
  -1  -6 -10   74.09    6.70
   1   6  10   62.29    6.00
  -2  -6 -10   70.39    5.20
  -2  -6 -10   61.09    6.30
   2   6  10   53.19    4.70
   2   6  10   68.39    6.30
  -3  -6 -10   12.20    3.80
  -3  -6 -10   16.70    3.00
   3   6  10   13.00    3.30
   3   6  10   17.50    2.60
  -4  -6 -10   21.20    3.30
  -4  -6 -10   30.50    5.30
   4   6  10   25.00    3.10
   4   6  10   20.00    4.00
  -5  -6 -10   -0.60    1.80
   5   6  10    1.40    2.80
  -6  -6 -10   17.20    4.40
   6   6  10   27.40    5.20
  -7  -6 -10   14.20    5.00
   7   6  10   13.80    5.00
   3  -7 -10   14.20    5.50
   3  -7 -10   17.70    3.60
  -3   7  10   15.00    4.10
   2  -7 -10   -0.60    1.80
   2  -7 -10    5.00    4.40
  -2   7  10    1.80    2.30
   1  -7 -10   15.20    3.10
   1  -7 -10   12.90    4.30
  -1   7  10   11.80    3.40
   0  -7 -10    4.10    3.40
   0  -7 -10    2.60    2.10
   0   7  10    4.90    3.00
  -1  -7 -10   89.99    8.00
  -1  -7 -10   68.79    5.80
   1   7  10   68.99    6.70
  -2  -7 -10   55.09    6.40
  -2  -7 -10   45.70    4.40
  -2  -7 -10   37.00    4.10
   2   7  10   42.90    5.10
  -3  -7 -10   31.80    4.10
  -3  -7 -10   37.60    5.80
   3   7  10   22.50    4.00
   3   7  10   22.00    3.10
  -4  -7 -10   29.50    4.10
  -4  -7 -10   23.30    6.20
   4   7  10   27.90    4.60
  -5  -7 -10    8.70    2.70
   5   7  10   13.50    4.20
  -6  -7 -10    8.30    4.20
   6   7  10   12.10    4.20
  -7  -7 -10   23.40    5.90
   7   7  10   25.20    6.00
   2  -8 -10   -1.00    5.00
   2  -8 -10    7.20    2.80
  -2   8  10    6.20    3.50
   1  -8 -10   18.20    3.60
   1  -8 -10   13.70    5.20
  -1   8  10    9.30    3.10
   0  -8 -10    8.10    3.00
   0  -8 -10   12.80    4.80
   0   8  10    5.50    2.80
  -1  -8 -10   30.00    4.10
  -1  -8 -10   32.60    5.90
   1   8  10   29.00    4.50
  -2  -8 -10   60.19    5.60
  -2  -8 -10   68.89    8.00
  -2  -8 -10   68.89    5.60
   2   8  10   67.99    7.10
  -3  -8 -10    9.90    2.80
  -3  -8 -10    6.30    2.50
  -3  -8 -10    0.80    4.20
   3   8  10    9.60    3.40
  -4  -8 -10   13.10    3.30
   4   8  10   13.20    4.20
  -5  -8 -10    6.00    2.90
   5   8  10   11.90    4.50
  -6  -8 -10   -1.30    2.70
   6   8  10    2.10    3.80
   7   8  10    7.50    5.30
   2  -9 -10    1.30    6.10
   2  -9 -10    3.10    4.20
  -2   9  10    6.70    4.50
   1  -9 -10    1.10    3.30
   1  -9 -10   -2.50    5.10
  -1   9  10    3.80    3.30
   0  -9 -10    2.50    2.90
   0  -9 -10   -4.10    4.70
   0   9  10    7.30    3.10
  -1  -9 -10    0.00    2.70
  -1  -9 -10   -1.00    4.40
   1   9  10   -0.20    2.40
  -2  -9 -10    5.80    2.80
  -2  -9 -10   -1.60    4.60
   2   9  10    7.70    3.00
  -3  -9 -10   78.39    7.00
  -3  -9 -10   96.79    7.00
   3   9  10   71.09    7.20
  -4  -9 -10   48.40    5.40
   4   9  10   39.10    6.00
  -5  -9 -10   11.20    3.50
   5   9  10   10.40    4.40
  -6  -9 -10    2.30    3.80
   6   9  10    1.30    4.20
   0 -10 -10   11.90    6.60
   0 -10 -10    7.90    3.90
   0  10  10   12.50    4.10
  -1 -10 -10   26.70    8.60
  -1 -10 -10   21.30    4.30
   1  10  10   23.20    5.00
  -2 -10 -10   12.30    3.50
   2  10  10   11.20    3.50
  -3 -10 -10   17.30    6.50
   3  10  10   12.00    3.70
  -4 -10 -10   56.79    6.40
   4  10  10   54.99    7.00
  -5 -10 -10    5.20    3.50
   5  10  10    6.10    4.20
   2  11  10    3.90    4.30
   3  11  10    5.80    4.20
   4  11  10    5.40    5.00
   1   7 -11   40.70    5.70
   1   7 -11   46.80    7.50
  -1  -7  11   34.70    5.80
   3   6 -11    7.30    3.20
   3   6 -11    8.00    3.40
   3   6 -11    4.60    3.40
  -3  -6  11    9.70    4.80
   2   6 -11   11.10    3.60
   2   6 -11   12.30    3.70
   2   6 -11    7.10    3.20
  -2  -6  11    5.20    4.00
   1   6 -11   50.79    6.50
   1   6 -11   48.90    5.60
   1   6 -11   37.40    5.30
  -1  -6  11   36.40    4.90
   0   6 -11   16.60    4.90
   0   6 -11   11.30    3.50
   0  -6  11   15.10    4.40
   0  -6  11   15.20    3.70
  -1   6 -11   14.40    3.80
  -1   6 -11   17.60    5.40
   1  -6  11   20.60    4.00
   1  -6  11   16.80    4.30
  -2   6 -11    5.80    3.60
  -2   6 -11    4.30    4.20
  -2   6 -11    6.60    5.20
   2  -6  11    9.00    4.30
   4   5 -11   17.20    4.00
   4   5 -11   20.70    3.50
   4   5 -11   15.60    3.60
  -4  -5  11   17.60    5.30
   3   5 -11   17.70    3.80
   3   5 -11   23.20    4.30
   3   5 -11   15.10    3.30
  -3  -5  11   18.80    4.60
   2   5 -11   10.80    3.30
   2   5 -11   11.30    3.30
   2   5 -11    8.00    2.70
  -2  -5  11   13.90    4.20
   1   5 -11   30.80    4.40
   1   5 -11   24.30    4.00
   1   5 -11   29.30    4.20
  -1  -5  11   19.70    4.20
   0   5 -11   -0.10    2.10
   0   5 -11   -3.00    3.00
   0  -5  11    1.60    2.20
   0  -5  11   -0.70    2.90
  -1   5 -11    6.00    3.70
  -1   5 -11    6.90    3.00
   1  -5  11    8.00    2.90
   1  -5  11    8.50    3.60
  -2   5 -11   10.00    3.90
  -2   5 -11   16.10    4.90
  -2   5 -11   15.60    4.40
   2  -5  11   20.10    4.30
  -3   5 -11   35.80    7.20
  -3   5 -11   31.00    5.10
   3  -5  11   28.90    5.30
   5   4 -11   61.29    7.00
   5   4 -11   56.39    6.90
   5   4 -11   63.59    5.40
   4   4 -11   13.30    3.50
   4   4 -11   10.40    2.60
   4   4 -11   14.40    3.40
  -4  -4  11   10.30    4.30
   3   4 -11    1.20    2.10
   3   4 -11    1.90    2.20
   3   4 -11    2.70    2.00
  -3  -4  11    3.20    3.10
   2   4 -11   49.80    5.20
   2   4 -11   44.00    5.00
   2   4 -11   41.20    4.30
  -2  -4  11   51.79    5.90
   1   4 -11   48.60    5.10
   1   4 -11   45.00    4.50
   1   4 -11   45.90    5.00
  -1  -4  11   58.69    5.50
  -1  -4  11   50.89    5.60
   0   4 -11   24.40    4.10
   0   4 -11   16.60    3.30
   0  -4  11   17.70    3.60
   0  -4  11   15.70    3.20
  -1   4 -11    3.50    3.10
  -1   4 -11    6.90    3.00
   1  -4  11    2.90    2.30
   1  -4  11    6.70    3.00
  -2   4 -11   15.00    3.80
  -2   4 -11    9.60    4.10
   2  -4  11    7.90    3.10
  -3   4 -11   -4.00    3.80
  -3   4 -11    0.90    3.00
   3  -4  11    0.90    3.00
   4  -4  11   12.50    4.10
  -5  -3  11   13.00    5.40
   4   3 -11    2.90    2.90
   4   3 -11    2.50    1.70
   4   3 -11   -1.60    2.50
  -4  -3  11   -3.10    3.30
   3   3 -11   37.10    4.50
   3   3 -11   35.00    3.30
   3   3 -11   32.80    4.20
  -3  -3  11   40.00    5.10
   2   3 -11   -1.40    2.00
   2   3 -11    1.50    2.10
   2   3 -11    0.30    1.40
  -2  -3  11    1.20    2.50
   1   3 -11    3.20    2.40
   1   3 -11    6.20    2.60
   1   3 -11    4.10    1.80
  -1  -3  11    6.50    2.70
  -1  -3  11    3.50    2.80
   0   3 -11   18.90    3.00
   0  -3  11   20.20    3.50
   0  -3  11   16.60    3.30
  -1   3 -11   -2.10    2.00
  -1   3 -11    1.50    2.20
   1  -3  11   -1.40    1.80
   1  -3  11   -4.30    2.00
  -2   3 -11   13.70    3.30
  -2   3 -11   10.40    3.60
   2  -3  11    7.20    2.90
  -3   3 -11    9.00    4.40
  -3   3 -11    8.40    3.20
   3  -3  11    5.40    3.10
  -4   3 -11    1.90    3.20
  -4   3 -11    2.70    9.20
   4  -3  11   -2.30    2.10
  -5  -2  11  202.18   12.80
  -4  -2  11   28.30    5.10
   3   2 -11    4.20    2.70
   3   2 -11    6.00    2.70
  -3  -2  11    3.30    2.90
   2   2 -11    1.00    2.70
   2   2 -11    3.80    1.30
   2   2 -11    2.00    2.80
  -2  -2  11    0.60    2.40
  -2  -2  11    0.70    2.40
   1   2 -11   14.90    2.10
  -1  -2  11   16.00    3.10
  -1  -2  11    9.70    2.70
   0   2 -11   20.80    2.70
   0  -2  11   24.40    3.70
   0  -2  11   20.80    3.30
  -1   2 -11    6.40    2.40
  -1   2 -11    9.20    2.50
   1  -2  11    6.10    2.60
  -2   2 -11   53.19    4.90
  -2   2 -11   47.40    5.20
   2  -2  11   66.29    6.00
  -3   2 -11   10.50    3.00
  -3   2 -11    4.00    3.30
   3  -2  11    8.30    3.00
  -4   2 -11   -2.40    3.70
  -4   2 -11    1.60    2.80
   4  -2  11    0.60    1.90
  -5   2 -11    3.30    4.10
   5  -2  11    4.40    2.90
  -5  -1  11   12.40    5.00
  -4  -1  11    4.50    4.20
  -3  -1  11   38.30    4.50
  -2  -1  11   48.60    4.50
  -2  -1  11   38.30    4.30
   1   1 -11    2.00    1.10
  -1  -1  11    6.20    2.30
  -1  -1  11    5.70    2.40
   0   1 -11   49.60    4.00
   0   1 -11   44.70    3.50
   0  -1  11   60.89    5.30
  -1   1 -11    7.30    2.10
  -1   1 -11    4.50    1.80
   1  -1  11    6.20    2.40
  -2   1 -11    1.50    1.90
  -2   1 -11    2.90    2.40
   2  -1  11    6.50    2.40
  -3   1 -11    6.00    3.10
  -3   1 -11   14.70    3.00
   3  -1  11   16.30    3.10
  -4   1 -11   23.60    4.80
  -4   1 -11   27.10    4.00
   4  -1  11   28.90    4.00
  -5   1 -11   40.10    5.20
   5  -1  11   49.40    5.60
   6  -1  11    2.40    3.30
   5   0 -11   42.50    3.90
  -4   0  11    3.30    3.10
  -3   0  11    2.80    2.30
  -3   0  11    0.40    2.60
  -2   0  11    5.30    2.10
  -2   0  11    4.60    2.40
   1   0 -11    2.70    0.90
   1   0 -11    0.70    1.40
  -1   0  11    2.20    1.90
   0   0 -11   41.20    3.10
   0   0 -11   42.60    4.00
   0   0  11   44.10    4.30
  -1   0 -11  118.69    6.50
  -1   0 -11  113.09    6.50
   1   0  11  125.59    7.50
  -2   0 -11   12.20    2.80
  -2   0 -11   13.90    2.60
   2   0  11   15.00    2.90
  -3   0 -11   39.30    5.00
  -3   0 -11   36.30    4.00
   3   0  11   42.00    4.40
  -4   0 -11   -0.20    2.30
  -4   0 -11    1.50    3.40
   4   0  11   -2.70    1.70
  -5   0 -11   11.60    3.60
   5   0  11   13.50    3.40
  -6   0 -11   20.80    5.10
   6   0  11   22.10    4.20
   5  -1 -11   43.30    4.30
  -5   1  11   52.39    6.90
  -4   1  11   20.20    4.30
   3  -1 -11   11.40    2.50
  -3   1  11    6.40    2.70
   2  -1 -11   27.30    3.60
  -2   1  11   29.20    4.10
  -2   1  11   29.30    3.50
   1  -1 -11    0.30    0.90
   1  -1 -11    2.50    1.50
  -1   1  11   -0.60    1.80
  -1   1  11    2.90    2.20
   0  -1 -11   23.50    2.80
   0  -1 -11   19.20    2.20
   0   1  11   30.70    3.70
  -1  -1 -11    2.30    1.50
  -1  -1 -11    4.40    1.50
   1   1  11    6.10    2.10
  -2  -1 -11   79.19    5.90
  -2  -1 -11   92.29    5.50
   2   1  11  112.29    6.80
  -3  -1 -11    9.50    2.40
  -3  -1 -11    8.00    3.00
   3   1  11   10.30    2.30
  -4  -1 -11    3.30    2.60
  -4  -1 -11   10.50    3.70
   4   1  11    9.90    2.60
  -5  -1 -11   19.80    3.90
   5   1  11   35.40    4.50
  -6  -1 -11    5.50    4.00
   6   1  11    7.10    3.10
   5  -2 -11   38.30    4.50
  -5   2  11   39.60    6.60
   4  -2 -11   14.60    5.20
   4  -2 -11    7.50    2.30
  -4   2  11   11.80    3.90
   3  -2 -11   24.00    2.70
   3  -2 -11   27.30    3.60
  -3   2  11   26.20    4.40
  -2   2  11   23.50    3.90
  -2   2  11   23.20    3.30
   1  -2 -11   10.80    1.60
   1  -2 -11    9.70    1.90
  -1   2  11   15.10    2.80
  -1   2  11   11.80    2.70
   0  -2 -11   28.30    2.80
   0  -2 -11   37.80    3.50
   0   2  11   44.10    4.50
   0   2  11   36.90    4.00
  -1  -2 -11   87.09    5.30
  -1  -2 -11   86.79    5.30
   1   2  11  115.69    6.90
   1   2  11  104.19    6.70
  -2  -2 -11   42.80    3.90
  -2  -2 -11   48.20    4.50
   2   2  11   50.29    4.50
  -3  -2 -11  124.19    8.00
  -3  -2 -11  116.49    7.00
   3   2  11  127.99    7.60
  -4  -2 -11   27.00    4.80
  -4  -2 -11   21.60    3.60
   4   2  11   27.20    3.70
  -5  -2 -11   19.30    3.80
   5   2  11   34.30    4.20
  -6  -2 -11   27.10    4.80
   6   2  11   31.20    4.60
  -7  -2 -11    7.40    5.30
   5  -3 -11   46.70    5.60
  -5   3  11   53.19    7.60
   4  -3 -11    6.20    2.50
   4  -3 -11    7.40    2.90
  -4   3  11    6.10    3.60
   3  -3 -11    3.00    1.80
   3  -3 -11    1.70    2.00
  -3   3  11    4.90    3.00
   2  -3 -11    7.00    2.20
   2  -3 -11    9.80    2.20
  -2   3  11   12.90    3.20
   1  -3 -11    9.10    1.90
  -1   3  11    3.10    2.30
  -1   3  11   16.10    2.90
   0  -3 -11   58.59    4.00
   0  -3 -11   53.59    4.10
   0   3  11   65.89    5.40
   0   3  11   59.09    5.10
  -1  -3 -11   77.09    5.20
  -1  -3 -11   77.89    4.90
   1   3  11   85.39    5.60
   1   3  11   79.59    5.80
  -2  -3 -11   32.40    3.50
  -2  -3 -11   24.90    3.50
   2   3  11   34.70    4.10
   2   3  11   32.30    3.60
  -3  -3 -11   26.90    4.10
  -3  -3 -11   30.40    3.60
   3   3  11   30.40    3.50
   3   3  11   31.30    4.10
  -4  -3 -11    1.80    2.40
  -4  -3 -11    6.60    3.40
   4   3  11    8.50    2.40
  -5  -3 -11   37.30    4.70
  -5  -3 -11   29.50   10.40
   5   3  11   45.80    4.80
  -6  -3 -11    2.10    3.50
  -7  -3 -11    0.70    4.60
   4  -4 -11    2.20    2.60
   4  -4 -11    3.50    2.50
  -4   4  11    5.50    3.90
   3  -4 -11    1.90    2.30
   3  -4 -11    4.20    2.20
  -3   4  11    4.00    3.30
   2  -4 -11    6.30    2.20
   2  -4 -11    4.90    2.00
  -2   4  11    5.20    2.80
   1  -4 -11   19.10    2.90
   1  -4 -11   13.00    2.70
  -1   4  11   14.70    3.30
   0  -4 -11   52.79    4.00
   0  -4 -11   46.00    4.30
   0   4  11   47.10    4.60
   0   4  11   54.19    5.30
  -1  -4 -11   50.19    4.70
  -1  -4 -11   45.20    4.10
   1   4  11   50.99    4.40
   1   4  11   46.50    5.10
  -2  -4 -11   17.00    2.70
  -2  -4 -11   23.50    3.90
   2   4  11   21.90    3.00
   2   4  11   29.30    3.90
  -3  -4 -11  320.97   14.70
  -3  -4 -11  319.57   15.80
   3   4  11  313.77   15.10
   3   4  11  342.37   15.80
  -4  -4 -11  191.18   11.60
  -4  -4 -11  184.28    9.80
   4   4  11  204.18   10.60
   4   4  11  207.88   11.50
  -5  -4 -11    5.10    3.10
   5   4  11    4.00    3.30
   5   4  11    6.10    2.40
  -6  -4 -11   69.59    7.00
  -7  -4 -11   -1.20    4.40
   4  -5 -11    0.60    2.70
   4  -5 -11    1.30    3.00
  -4   5  11    5.00    4.10
   3  -5 -11   18.60    3.80
   3  -5 -11   20.30    3.50
  -3   5  11   25.80    5.30
   2  -5 -11   12.60    3.10
   2  -5 -11    7.70    2.50
  -2   5  11    8.30    3.40
   1  -5 -11   50.19    5.30
   1  -5 -11   44.00    4.50
  -1   5  11   47.70    5.60
   0  -5 -11   26.70    4.00
   0   5  11   23.20    3.10
   0   5  11   31.30    4.40
  -1  -5 -11  154.98    9.00
  -1  -5 -11  145.29    7.90
   1   5  11  144.09    8.90
   1   5  11  141.19    8.00
  -2  -5 -11   18.30    3.90
  -2  -5 -11   17.80    2.80
   2   5  11   18.40    2.80
   2   5  11   17.00    3.70
  -3  -5 -11    4.90    3.10
  -3  -5 -11   11.40    2.50
   3   5  11    9.80    2.40
   3   5  11   12.80    3.20
  -4  -5 -11    2.10    1.90
  -4  -5 -11    5.70    3.70
   4   5  11    3.90    2.90
   4   5  11    1.10    1.70
  -5  -5 -11   62.49    6.20
   5   5  11   59.99    6.60
   5   5  11   53.69    5.30
  -6  -5 -11   25.50    4.80
   6   5  11   20.60    4.70
  -7  -5 -11    4.50    4.90
   3  -6 -11    8.60    4.60
   3  -6 -11   -0.80    2.20
  -3   6  11    2.70    3.80
   2  -6 -11  115.79    7.40
   2  -6 -11  106.39    9.10
  -2   6  11  123.79    9.30
   1  -6 -11   46.40    4.80
   1  -6 -11   56.49    6.20
  -1   6  11   60.99    6.60
   0  -6 -11    0.60    3.00
   0  -6 -11    5.60    2.40
   0   6  11    5.80    2.80
  -1  -6 -11    7.20    2.40
  -1  -6 -11    9.60    3.40
   1   6  11    9.70    3.30
   1   6  11    6.10    2.00
  -2  -6 -11    2.30    2.90
  -2  -6 -11    1.70    1.80
   2   6  11    0.50    1.60
   2   6  11    1.70    2.40
  -3  -6 -11    8.00    3.60
  -3  -6 -11    2.50    2.00
   3   6  11    5.00    2.90
   3   6  11    2.20    1.90
  -4  -6 -11   14.70    4.50
  -4  -6 -11   13.90    3.00
   4   6  11   17.00    3.90
   4   6  11   14.50    2.60
  -5  -6 -11   18.70    3.60
   5   6  11   19.80    4.70
  -6  -6 -11    0.30    3.70
   6   6  11    2.90    3.60
  -7  -6 -11    5.20    5.00
   7   6  11    5.70    4.60
   3  -7 -11   11.10    3.60
   3  -7 -11    7.10    5.60
  -3   7  11    2.90    3.80
   2  -7 -11    0.00    2.00
   2  -7 -11    7.20    4.70
  -2   7  11    4.80    3.80
   1  -7 -11    6.80    4.10
   1  -7 -11    4.60    2.80
  -1   7  11    4.30    3.40
   0  -7 -11   -1.20    2.30
   0  -7 -11    4.40    3.90
   0   7  11    0.90    2.80
  -1  -7 -11   17.40    3.30
  -1  -7 -11   13.30    4.40
   1   7  11   13.00    3.50
  -2  -7 -11    8.30    4.00
  -2  -7 -11    6.20    2.50
  -2  -7 -11    8.50    2.70
   2   7  11    6.10    3.10
  -3  -7 -11   30.10    5.60
  -3  -7 -11   20.00    3.60
   3   7  11   12.70    2.70
   3   7  11   22.00    4.30
  -4  -7 -11    5.40    2.50
  -4  -7 -11    4.30    4.60
   4   7  11    1.30    2.40
   4   7  11    2.30    3.10
  -5  -7 -11   41.50    5.10
   5   7  11   41.60    6.10
  -6  -7 -11   52.89    6.50
   6   7  11   52.99    7.20
   2  -8 -11    7.30    5.80
   2  -8 -11    5.70    3.30
  -2   8  11    5.70    4.00
   1  -8 -11    1.50    4.70
   1  -8 -11   -1.20    2.80
  -1   8  11   -0.30    2.40
   0  -8 -11   15.80    3.50
   0  -8 -11   26.60    5.80
   0   8  11   17.90    4.60
  -1  -8 -11   30.90    5.90
  -1  -8 -11   23.20    3.90
   1   8  11   20.10    4.40
  -2  -8 -11   56.39    5.40
  -2  -8 -11   55.49    7.40
  -2  -8 -11   56.79    6.00
   2   8  11   51.19    6.20
  -3  -8 -11   45.20    5.20
  -3  -8 -11   41.30    6.90
  -3  -8 -11   52.09    5.10
   3   8  11   48.80    6.20
  -4  -8 -11   46.40    5.50
   4   8  11   48.90    6.50
  -5  -8 -11    8.10    3.50
   5   8  11   -1.20    3.70
  -6  -8 -11    3.60    3.60
   6   8  11   -1.30    4.10
   1  -9 -11   -1.00    3.30
   1  -9 -11    1.40    5.80
  -1   9  11    0.70    3.40
   0  -9 -11    0.50    2.80
   0  -9 -11    0.90    5.70
   0   9  11    1.90    3.10
  -1  -9 -11    2.00    4.80
  -1  -9 -11    3.70    2.90
   1   9  11    8.90    3.40
  -2  -9 -11    1.60    4.90
  -2  -9 -11    5.50    3.00
   2   9  11   10.90    4.20
  -3  -9 -11    3.90    3.10
  -3  -9 -11    3.30    3.20
   3   9  11    3.80    3.70
  -4  -9 -11   34.80    4.90
   4   9  11   23.80    5.30
  -5  -9 -11   20.10    4.40
   5   9  11    9.50    4.60
   0 -10 -11   38.10    5.90
  -1 -10 -11   44.30    5.70
  -1 -10 -11   53.19    9.20
   1  10  11   52.79    7.20
  -2 -10 -11   15.70    4.00
   2  10  11   11.80    4.00
   3  10  11    0.70    2.80
  -4 -10 -11    7.80    3.70
   4  10  11    7.10    4.60
   1   6 -12    0.00    3.20
   1   6 -12   -4.70    4.20
  -1  -6  12    4.70    4.00
   0   6 -12   17.90    5.80
   0   6 -12   11.10    4.30
   0  -6  12   15.60    4.80
   3   5 -12   19.30    4.30
   3   5 -12   14.10    3.40
   3   5 -12   32.30    5.20
  -3  -5  12   24.70    5.80
   2   5 -12   33.10    4.60
   2   5 -12   25.70    4.80
   2   5 -12   31.70    5.00
  -2  -5  12   26.10    5.30
   1   5 -12   94.89    8.30
   1   5 -12   85.09    8.00
   1   5 -12   87.49    7.00
   0   5 -12   12.10    4.30
   0  -5  12   21.80    4.50
   0  -5  12    8.60    3.30
  -1   5 -12   15.20    4.80
   1  -5  12   16.60    4.70
   1  -5  12   17.50    4.00
  -2   5 -12   13.60    5.70
  -2   5 -12   20.60    5.30
   2  -5  12   14.70    5.30
   4   4 -12   18.90    3.20
   4   4 -12   14.20    4.20
   4   4 -12   20.70    4.70
  -4  -4  12   11.00    5.00
   3   4 -12   40.20    5.50
   3   4 -12   35.80    4.00
   3   4 -12   31.70    5.20
  -3  -4  12   50.09    6.50
   2   4 -12   30.90    6.20
   2   4 -12   18.20    3.30
   2   4 -12   30.80    6.10
  -2  -4  12   22.80    4.70
   1   4 -12   71.69    5.80
  -1  -4  12   78.69    8.00
  -1  -4  12   61.09    6.50
   0   4 -12   49.10    5.50
   0  -4  12   60.79    6.10
   0  -4  12   50.29    5.50
  -1   4 -12    0.70    3.00
  -1   4 -12   -1.30    3.10
   1  -4  12    1.00    2.90
  -2   4 -12   34.50    5.00
  -2   4 -12   26.90    5.40
   2  -4  12   36.10    5.40
  -3   4 -12    3.10    4.90
  -3   4 -12   -4.00    3.50
   3  -4  12   -4.10    3.40
   4   3 -12   20.60    9.30
   3   3 -12   39.80    3.60
  -3  -3  12   45.10    5.80
   2   3 -12    4.20    1.70
  -2  -3  12    4.50    3.30
   1   3 -12   59.29    5.00
  -1  -3  12   76.29    6.20
  -1  -3  12   59.29    6.30
   0   3 -12   15.20    2.90
   0  -3  12   20.10    3.80
   0  -3  12   19.40    3.90
  -1   3 -12   48.10    5.30
  -1   3 -12   46.10    5.20
   1  -3  12   57.19    6.00
  -2   3 -12   29.70    5.10
  -2   3 -12   43.20    4.90
   2  -3  12   43.60    5.30
  -3   3 -12    6.10    4.40
  -3   3 -12    6.00    3.20
   3  -3  12    5.70    3.50
  -4   3 -12   14.70    4.30
  -4   3 -12   14.40   10.10
   4  -3  12   14.50    4.30
  -3  -2  12  133.19    9.20
   2   2 -12    8.40    1.90
  -2  -2  12   13.80    4.10
  -2  -2  12   11.40    3.50
   1   2 -12   38.40    3.60
  -1  -2  12   36.50    4.80
  -1  -2  12   48.40    4.80
   0   2 -12   76.29    5.20
   0   2 -12   55.79    4.60
   0  -2  12   84.79    6.80
  -1   2 -12   16.00    3.20
  -1   2 -12   15.40    3.20
   1  -2  12   12.20    3.20
  -2   2 -12    8.60    2.90
  -2   2 -12    7.40    3.30
   2  -2  12    6.00    3.10
  -3   2 -12    0.70    2.80
  -3   2 -12   -0.20    3.60
   3  -2  12    3.90    3.10
  -4   2 -12   18.30    4.20
  -4   2 -12   17.30    5.30
   4  -2  12   20.50    3.80
  -2  -1  12    6.60    2.70
  -2  -1  12    2.30    2.60
   1   1 -12    5.10    1.40
   1   1 -12    7.90    2.10
  -1  -1  12    6.10    2.60
   0   1 -12   21.10    2.70
   0   1 -12   23.30    3.20
   0  -1  12   30.50    4.10
  -1   1 -12    3.60    1.70
  -1   1 -12    9.20    2.20
   1  -1  12   10.50    2.80
  -2   1 -12   -2.40    2.10
  -2   1 -12    2.40    2.60
   2  -1  12    2.60    2.40
  -3   1 -12   10.00    3.10
  -3   1 -12   11.40    3.90
   3  -1  12   16.10    3.30
  -4   1 -12    8.90    3.50
  -4   1 -12    7.30    4.50
   4  -1  12   11.40    2.90
  -5   1 -12    4.80    4.00
   5  -1  12    5.30    3.50
   5   0 -12    9.50    5.50
   2   0 -12   15.70    2.80
  -2   0  12   15.20    3.20
   1   0 -12   10.50    2.40
   1   0 -12   11.90    1.70
  -1   0  12   14.50    3.00
   0   0 -12   13.40    2.10
   0   0 -12   15.40    2.70
   0   0  12   13.90    3.00
  -1   0 -12   38.00    3.90
  -1   0 -12   43.40    4.20
   1   0  12   47.30    4.90
  -2   0 -12    6.30    2.70
  -2   0 -12    5.90    2.10
   2   0  12    5.10    2.30
  -3   0 -12    6.90    3.20
  -3   0 -12    7.90    2.70
   3   0  12    7.70    2.50
  -4   0 -12   20.40    3.80
  -4   0 -12    9.10    4.10
   4   0  12   11.70    3.10
  -5   0 -12    0.70    3.40
   5   0  12    5.10    2.90
  -4   1  12   25.80    5.20
   3  -1 -12    7.80    2.90
  -3   1  12   15.80    3.80
  -2   1  12   21.50    3.40
   1  -1 -12    6.10    1.40
   1  -1 -12    8.80    2.00
  -1   1  12   10.90    2.80
   0  -1 -12   21.20    2.90
   0  -1 -12   20.40    2.40
   0   1  12   22.10    3.40
  -1  -1 -12    0.50    1.60
  -1  -1 -12    3.50    1.70
   1   1  12    5.40    2.30
  -2  -1 -12   12.30    3.00
  -2  -1 -12   16.80    2.70
   2   1  12   16.30    3.00
  -3  -1 -12    2.70    2.30
  -3  -1 -12    3.70    3.00
   3   1  12    0.90    1.90
  -4  -1 -12   32.80    4.40
  -4  -1 -12   36.00    5.60
   4   1  12   32.20    4.20
  -5  -1 -12   35.90    5.10
   5   1  12   46.20    5.10
  -6  -1 -12    7.70    4.20
   6   1  12    0.20    3.10
   4  -2 -12   75.29    5.40
  -4   2  12   79.59    8.10
   3  -2 -12   19.80    2.80
   3  -2 -12   20.50    3.50
  -3   2  12   24.30    4.60
   2  -2 -12    1.40    1.40
  -2   2  12    1.30    2.60
  -2   2  12    0.80    2.20
   1  -2 -12   18.50    2.70
   1  -2 -12    9.80    1.80
  -1   2  12   25.80    3.60
  -1   2  12   18.50    3.60
   0  -2 -12   29.00    3.30
   0  -2 -12   32.50    3.00
   0   2  12   42.30    4.40
   0   2  12   47.70    6.50
  -1  -2 -12    9.20    2.10
  -1  -2 -12    9.60    2.20
   1   2  12    5.60    2.20
  -2  -2 -12    5.50    2.50
  -2  -2 -12    3.70    1.80
   2   2  12    2.40    1.80
  -3  -2 -12   31.80    4.60
  -3  -2 -12   37.00    4.10
   3   2  12   22.30    3.50
  -4  -2 -12   11.00    3.90
  -4  -2 -12   11.10    3.20
   4   2  12   11.80    2.90
  -5  -2 -12    6.90    3.60
  -5  -2 -12   11.30    6.00
   5   2  12   18.30    3.70
  -6  -2 -12    9.70    4.60
   6   2  12   17.10    4.10
   4  -3 -12   19.90    4.20
   4  -3 -12   20.90    3.50
  -4   3  12   24.80    5.30
   3  -3 -12   22.00    3.60
   3  -3 -12   17.40    3.00
  -3   3  12   16.60    4.40
   2  -3 -12   24.50    3.10
   2  -3 -12   22.70    3.50
  -2   3  12   38.10    5.00
   1  -3 -12   12.60    2.10
  -1   3  12   15.40    3.40
  -1   3  12   17.10    3.10
   0  -3 -12    6.10    1.90
   0  -3 -12    0.70    1.60
   0   3  12    8.20    2.50
   0   3  12    1.40    2.20
  -1  -3 -12   22.50    3.10
  -1  -3 -12   22.90    3.00
   1   3  12   26.60    3.50
   1   3  12   33.70    4.30
  -2  -3 -12    0.70    1.70
  -2  -3 -12   -1.20    2.10
   2   3  12    0.80    4.50
   2   3  12    0.30    1.50
  -3  -3 -12   12.10    2.60
  -3  -3 -12   12.40    3.50
   3   3  12   20.10    3.10
  -4  -3 -12   27.40    4.10
  -4  -3 -12   36.20    5.40
   4   3  12   31.40    4.00
  -5  -3 -12   25.70    6.60
  -5  -3 -12   28.20    4.60
   5   3  12   40.10    5.10
  -6  -3 -12    4.70    4.00
   6   3  12    3.00    4.60
   4  -4 -12   15.40    3.80
   4  -4 -12   12.90    3.60
  -4   4  12   18.50    5.20
   3  -4 -12   25.70    3.90
   3  -4 -12   22.60    3.90
  -3   4  12   21.20    4.90
   2  -4 -12   34.90    4.20
   2  -4 -12   40.90    4.40
  -2   4  12   45.30    5.80
   1  -4 -12    4.70    2.20
  -1   4  12    5.20    2.50
  -1   4  12    2.80    2.40
   0  -4 -12   11.50    2.60
   0  -4 -12   11.60    2.30
   0   4  12   10.60    3.20
   0   4  12   13.10    3.00
  -1  -4 -12   11.10    2.40
  -1  -4 -12   10.50    2.90
   1   4  12   13.80    3.20
   1   4  12   14.10    2.60
  -2  -4 -12    1.80    2.50
  -2  -4 -12    2.10    1.80
   2   4  12    2.40    1.70
   2   4  12    6.70    2.60
  -3  -4 -12   79.79    7.20
  -3  -4 -12   74.49    5.70
   3   4  12   83.69    6.00
   3   4  12   81.99    6.90
  -4  -4 -12   56.39    5.40
  -4  -4 -12   74.49    7.70
   4   4  12   60.99    5.60
  -5  -4 -12   -2.40    9.20
  -5  -4 -12   10.00    3.40
   5   4  12    4.40    2.60
  -6  -4 -12   13.20    4.80
   3  -5 -12    2.80    2.60
   3  -5 -12    3.70    2.90
  -3   5  12    4.70    4.20
   2  -5 -12   28.50    4.20
   2  -5 -12   35.40    4.40
  -2   5  12   39.50    5.80
   1  -5 -12  114.89    7.20
   1  -5 -12   97.29    7.30
  -1   5  12  114.59    8.40
   0  -5 -12    6.30    2.60
   0   5  12   10.00    2.70
   0   5  12    6.00    3.00
  -1  -5 -12   14.50    2.60
  -1  -5 -12    8.00    3.10
   1   5  12    8.60    2.40
   1   5  12   11.90    3.20
  -2  -5 -12   21.30    4.10
  -2  -5 -12   19.40    3.10
   2   5  12   26.10    4.10
   2   5  12   18.80    3.10
  -3  -5 -12  108.09    8.80
  -3  -5 -12  110.79    7.00
   3   5  12  107.79    7.80
   3   5  12  109.59    7.00
  -4  -5 -12   15.40    3.10
  -4  -5 -12    9.80    4.30
   4   5  12    9.50    3.40
   4   5  12    9.00    2.80
  -5  -5 -12    5.40    3.60
   5   5  12    5.00    2.90
   5   5  12   10.00    4.10
  -6  -5 -12   14.40    4.70
   3  -6 -12    3.80    3.00
   3  -6 -12    2.80    4.00
  -3   6  12    0.90    4.20
   2  -6 -12   72.99    6.60
   2  -6 -12   72.89    7.10
  -2   6  12   72.59    8.10
   1  -6 -12   71.19    6.30
   1  -6 -12   82.19    7.50
  -1   6  12   84.99    8.20
   0  -6 -12    8.60    3.10
   0  -6 -12    9.30    3.80
   0   6  12   10.10    3.60
  -1  -6 -12    5.70    3.40
  -1  -6 -12    8.30    3.20
   1   6  12    6.40    2.90
   1   6  12    4.90    2.10
  -2  -6 -12    1.90    2.20
  -2  -6 -12    4.50    3.50
   2   6  12    1.90    2.00
   2   6  12    2.50    2.80
  -3  -6 -12   58.79    5.50
  -3  -6 -12   56.29    6.90
   3   6  12   49.10    5.80
   3   6  12   52.59    5.10
  -4  -6 -12   61.19    6.10
  -4  -6 -12   64.99    7.50
   4   6  12   62.39    6.90
   4   6  12   64.79    5.60
  -5  -6 -12   19.20    3.90
   5   6  12   23.80    5.10
  -6  -6 -12    6.80    4.40
   6   6  12    3.40    4.50
   2  -7 -12   11.40    3.30
   2  -7 -12    5.60    5.00
  -2   7  12   12.30    4.80
   1  -7 -12   20.00    3.60
   1  -7 -12   25.40    5.50
  -1   7  12   13.50    4.40
   0  -7 -12   26.30    4.20
   0  -7 -12   24.90    5.30
   0   7  12   23.70    4.80
  -1  -7 -12   15.80    3.50
  -1  -7 -12   12.60    4.60
   1   7  12   18.30    4.40
  -2  -7 -12   26.70    5.50
  -2  -7 -12   28.60    4.20
  -2  -7 -12   30.50    4.40
   2   7  12   26.10    4.90
  -3  -7 -12   16.80    5.40
  -3  -7 -12   19.30    3.80
   3   7  12   18.60    4.50
   3   7  12   18.40    3.20
  -4  -7 -12    5.70    2.80
  -4  -7 -12    8.10    5.20
   4   7  12    9.10    3.00
   4   7  12    4.80    3.50
  -5  -7 -12   -2.30    2.10
   5   7  12    3.30    3.90
  -6  -7 -12    8.90    4.40
   6   7  12    7.90    5.10
   1  -8 -12  127.09    9.00
   1  -8 -12  115.09   10.90
  -1   8  12  128.49   10.60
   0  -8 -12   35.80    6.80
   0  -8 -12   39.50    5.20
   0   8  12   35.70    6.10
  -1  -8 -12    0.90    4.60
  -1  -8 -12   -2.00    2.80
   1   8  12    1.70    3.40
  -2  -8 -12   33.30    6.60
  -2  -8 -12   39.30    5.00
   2   8  12   29.30    5.40
  -3  -8 -12   23.20    4.00
  -3  -8 -12   13.40    5.40
  -3  -8 -12   21.30    3.80
   3   8  12   22.60    5.00
  -4  -8 -12   11.40    3.40
   4   8  12   13.40    4.40
  -5  -8 -12   43.60    5.80
   5   8  12   42.80    6.70
   0  -9 -12   12.80    6.40
   0  -9 -12   22.00    4.50
   0   9  12   14.40    5.10
  -1  -9 -12    5.20    5.70
  -1  -9 -12    8.10    3.50
   1   9  12    9.00    4.50
  -2  -9 -12   15.60    4.00
  -2  -9 -12   14.30    6.00
   2   9  12   18.50    5.10
  -3  -9 -12   18.90    4.60
  -3  -9 -12   16.90    7.60
  -3  -9 -12   11.80    3.70
   3   9  12   16.30    5.00
  -4  -9 -12    5.10    3.40
   4   9  12    0.60    4.20
  -5  -9 -12    5.70    4.10
   5   9  12    7.40    5.00
  -2 -10 -12    3.50   10.90
  -2 -10 -12    1.60    3.60
   2  10  12    2.10    4.40
   3  10  12   -0.80    4.70
   1   5 -13   13.10    4.50
  -1  -5  13   11.20    5.50
   0  -5  13    5.50    4.80
   2   4 -13   33.10    4.30
  -2  -4  13   37.60    5.90
   1   4 -13    3.80    2.30
  -1  -4  13    3.20    4.00
   0   4 -13   -0.10    2.70
   0  -4  13    1.00    3.50
   0  -4  13    1.80    3.70
  -1   4 -13    4.90    4.10
  -1   4 -13   13.00    4.20
   1  -4  13   11.50    4.20
  -2   4 -13   37.10    5.60
  -2   4 -13   26.40    6.30
   2  -4  13   32.40    5.60
   3   3 -13    4.90    2.20
  -3  -3  13    4.80    4.20
   2   3 -13   22.00    3.00
  -2  -3  13   25.60    4.90
   1   3 -13   26.30    3.50
  -1  -3  13   44.70    5.80
  -1  -3  13   47.20    5.50
   0   3 -13   29.30    4.10
   0   3 -13   36.60    4.30
   0  -3  13   43.70    5.50
  -1   3 -13   11.30    3.80
  -1   3 -13    8.00    3.70
   1  -3  13    9.10    3.60
  -2   3 -13   23.00    4.30
  -2   3 -13   17.80    4.70
   2  -3  13   38.20    5.80
  -3   3 -13    4.70    4.90
  -3   3 -13    3.40    3.90
   3  -3  13    0.70    3.80
  -3  -2  13   24.60    5.00
   2   2 -13   26.80    2.90
  -2  -2  13   26.40    4.60
   1   2 -13    0.30    1.50
  -1  -2  13    2.80    3.10
  -1  -2  13   -1.10    2.90
   0   2 -13   52.09    5.10
   0   2 -13   49.50    4.70
   0  -2  13   74.79    6.70
  -1   2 -13   12.50    3.40
  -1   2 -13   18.30    3.30
   1  -2  13   14.90    3.70
  -2   2 -13   38.20    5.30
  -2   2 -13   28.20    4.40
   2  -2  13   31.20    4.90
  -3   2 -13   12.10    4.00
  -3   2 -13    7.60    4.30
   3  -2  13   17.80    4.30
  -4   2 -13    5.70    4.20
  -4   2 -13    7.60    5.40
   4  -2  13    9.40    4.00
   2   1 -13   12.90    2.80
  -2  -1  13   18.50    4.00
   1   1 -13    2.20    1.40
   1   1 -13    2.40    2.00
  -1  -1  13    1.30    2.70
   0   1 -13    3.90    1.60
   0   1 -13    5.10    2.10
   0  -1  13    9.60    3.20
  -1   1 -13   21.60    3.40
  -1   1 -13   17.50    3.10
   1  -1  13   24.90    4.30
  -2   1 -13   11.70    3.20
  -2   1 -13    8.40    3.50
   2  -1  13   12.70    3.60
  -3   1 -13   17.10    3.80
  -3   1 -13   22.00    4.90
   3  -1  13    9.70    3.10
  -4   1 -13   -1.80    4.60
  -4   1 -13   -1.00    3.50
   4  -1  13    0.10    2.60
   2   0 -13  119.09    7.80
  -2   0  13  140.69    8.80
   1   0 -13   37.40    4.10
   1   0 -13   25.30    2.50
  -1   0  13   39.60    4.70
   0   0 -13   40.20    4.10
   0   0 -13   30.40    3.10
   0   0  13   47.50    5.20
  -1   0 -13    1.70    1.80
  -1   0 -13    4.20    1.90
   1   0  13   -3.50    2.20
  -2   0 -13    4.00    2.20
  -2   0 -13    1.60    2.80
   2   0  13    5.90    3.00
  -3   0 -13   31.80    5.10
  -3   0 -13   20.50    3.80
   3   0  13   36.90    4.70
  -4   0 -13   14.90    4.90
  -4   0 -13   14.10    3.80
   4   0  13    9.50    3.10
  -5   0 -13    2.40    4.10
   5   0  13   -1.70    3.20
   3  -1 -13   71.69    6.80
  -2   1  13   11.60    3.40
   1  -1 -13    1.40    1.30
   1  -1 -13   -1.10    1.60
  -1   1  13   -1.20    2.30
   0  -1 -13    4.80    1.70
   0  -1 -13    9.80    2.40
   0   1  13   18.30    3.50
  -1  -1 -13   66.19    5.00
  -1  -1 -13   53.29    4.60
   1   1  13   58.39    5.70
  -2  -1 -13   -1.80    2.40
  -2  -1 -13    1.30    1.70
   2   1  13    1.60    2.30
  -3  -1 -13   -0.50    2.40
  -3  -1 -13    3.80    3.20
   3   1  13    5.20    2.50
  -4  -1 -13    6.00    4.10
  -4  -1 -13    4.70    3.30
   4   1  13    9.70    3.00
  -5  -1 -13    1.90    3.80
   5   1  13   -0.60    2.40
   4  -2 -13    5.30    2.60
  -4   2  13    6.90    4.70
   3  -2 -13   15.40    3.50
   3  -2 -13   16.30    2.50
  -3   2  13   20.10    4.70
  -2   2  13  120.19    7.90
  -2   2  13  110.59    9.10
   1  -2 -13   14.30    3.10
   1  -2 -13   12.30    2.00
  -1   2  13   23.50    3.80
   0  -2 -13   32.70    3.70
   0   2  13   46.00    5.00
  -1  -2 -13   27.00    3.40
  -1  -2 -13   21.00    3.00
   1   2  13   23.10    3.70
  -2  -2 -13   21.60    3.70
  -2  -2 -13   22.10    3.10
   2   2  13   28.50    3.90
  -3  -2 -13    2.90    2.10
  -3  -2 -13    0.60    3.10
   3   2  13    2.90    2.20
  -4  -2 -13   -0.10    3.70
  -4  -2 -13    3.60    3.00
   4   2  13    3.40    2.70
  -5  -2 -13   12.70    4.40
  -5  -2 -13    8.30    6.20
   5   2  13   23.30    4.10
   3  -3 -13   51.99    5.50
   3  -3 -13   53.09    4.90
  -3   3  13   63.79    7.20
   2  -3 -13   -0.90    2.00
   2  -3 -13    1.50    2.30
  -2   3  13   -1.90    2.90
   1  -3 -13    1.20    1.60
  -1   3  13    3.60    2.70
  -1   3  13    2.20    2.80
   0  -3 -13   15.60    2.60
   0  -3 -13   20.80    3.00
   0   3  13   17.40    3.90
   0   3  13   20.50    3.60
  -1  -3 -13    0.00    1.80
  -1  -3 -13   -1.10    1.50
   1   3  13    0.30    2.10
  -2  -3 -13   26.80    4.20
  -2  -3 -13   28.80    3.80
   2   3  13   36.50    4.40
  -3  -3 -13   25.50    4.60
  -3  -3 -13   25.80    3.70
   3   3  13   32.30    4.20
  -4  -3 -13    4.90    3.90
  -4  -3 -13    2.20    3.00
   4   3  13    2.10    2.40
  -5  -3 -13    3.30    5.60
  -5  -3 -13    2.20    3.60
   5   3  13    6.00    2.90
  -6  -3 -13    6.60    4.90
   6   3  13    7.30    4.60
   3  -4 -13   47.40    5.20
   3  -4 -13   35.10    4.80
  -3   4  13   45.20    6.70
   2  -4 -13   20.00    3.50
   2  -4 -13   29.40    4.20
  -2   4  13   21.30    4.70
   1  -4 -13    9.20    2.90
  -1   4  13   11.90    3.20
  -1   4  13    9.50    3.50
   0  -4 -13   60.29    5.10
   0   4  13   62.99    5.90
   0   4  13   71.59    6.90
  -1  -4 -13   12.00    3.20
  -1  -4 -13    8.30    2.50
   1   4  13   12.00    2.60
   1   4  13    7.00    3.00
  -2  -4 -13    2.20    3.00
  -2  -4 -13    6.60    2.40
   2   4  13    4.40    3.30
   2   4  13    5.60    2.30
  -3  -4 -13    2.20    3.50
  -3  -4 -13    2.40    2.20
   3   4  13    4.70    2.30
  -4  -4 -13    1.50    2.20
  -4  -4 -13    1.00    4.10
   4   4  13    0.30    2.20
  -5  -4 -13    1.60    3.40
  -5  -4 -13   -1.70    6.00
   5   4  13    3.20    2.70
  -6  -4 -13    8.00    5.00
   3  -5 -13    1.40    3.60
   3  -5 -13    1.80    3.00
  -3   5  13    5.40    4.90
   2  -5 -13   10.40    3.20
   2  -5 -13   10.40    3.10
  -2   5  13    7.10    4.00
   1  -5 -13   30.10    4.10
   1  -5 -13   23.60    4.00
  -1   5  13   34.80    5.40
   0  -5 -13   27.70    4.00
   0   5  13   26.70    4.10
   0   5  13   23.00    4.50
  -1  -5 -13    9.20    3.60
  -1  -5 -13   14.10    3.00
   1   5  13   15.80    3.90
   1   5  13    9.50    2.60
  -2  -5 -13    2.60    2.20
  -2  -5 -13    2.30    3.20
   2   5  13    3.50    3.10
   2   5  13    3.20    2.20
  -3  -5 -13   14.20    4.60
  -3  -5 -13   11.00    2.70
   3   5  13   12.70    3.00
   3   5  13   11.10    3.60
  -4  -5 -13   10.70    4.90
  -4  -5 -13   14.40    3.30
   4   5  13   12.70    3.20
   4   5  13   10.70    4.50
  -5  -5 -13   39.10    5.10
   5   5  13   36.30    4.80
  -6  -5 -13    3.60    4.90
   2  -6 -13    3.70    2.60
   2  -6 -13    1.60    3.20
  -2   6  13    1.10    4.00
   1  -6 -13    9.20    2.80
   1  -6 -13   12.30    3.50
  -1   6  13   19.60    4.60
   0  -6 -13    0.40    3.70
   0  -6 -13    2.00    2.90
   0   6  13    9.90    3.70
  -1  -6 -13   14.10    4.30
   1   6  13    4.50    2.30
   1   6  13    9.70    3.50
  -2  -6 -13    5.50    2.70
  -2  -6 -13    0.90    3.70
   2   6  13    4.60    3.50
   2   6  13    2.60    2.20
  -3  -6 -13   41.70    6.30
  -3  -6 -13   46.50    5.30
   3   6  13   56.49    6.40
   3   6  13   38.90    4.70
  -4  -6 -13  115.79   10.40
  -4  -6 -13  105.69    7.80
   4   6  13  111.99    7.50
   4   6  13  112.79    9.60
  -5  -6 -13    1.40    2.80
   5   6  13    0.20    4.00
   1  -7 -13   18.50    3.70
   1  -7 -13   13.40    5.20
  -1   7  13   19.80    5.20
   0  -7 -13   35.00    6.30
   0  -7 -13   46.60    5.60
   0   7  13   34.00    5.90
  -1  -7 -13    3.30    3.10
  -1  -7 -13    1.90    4.40
   1   7  13    2.50    3.30
  -2  -7 -13   -3.70    3.80
  -2  -7 -13    0.40    2.80
   2   7  13   -0.10    2.00
   2   7  13   -0.30    3.60
  -3  -7 -13   10.00    3.30
  -3  -7 -13    7.30    4.80
   3   7  13    9.70    3.00
   3   7  13   10.60    4.20
  -4  -7 -13    5.00    3.00
  -4  -7 -13    4.00    5.10
   4   7  13    4.40    4.20
   4   7  13    4.80    2.70
  -5  -7 -13   39.40    5.60
   5   7  13   51.49    7.50
   0  -8 -13   18.10    4.60
   0  -8 -13   14.90    5.90
   0   8  13   21.50    5.70
  -1  -8 -13   10.70    3.90
  -1  -8 -13   10.40    5.60
   1   8  13    5.50    3.90
  -2  -8 -13   26.20    4.60
  -2  -8 -13   11.90    6.00
   2   8  13   21.50    5.40
  -3  -8 -13   22.40    4.20
  -3  -8 -13   20.40    4.30
  -3  -8 -13   23.90    6.60
   3   8  13   15.70    5.00
  -4  -8 -13   21.50    4.30
   4   8  13   18.40    5.30
  -5  -8 -13    6.20    4.20
   5   8  13    4.90    5.00
  -1  -9 -13    7.30    6.30
  -1  -9 -13    5.00    4.30
   1   9  13    9.70    5.30
  -2  -9 -13    2.40    6.00
  -2  -9 -13    0.10    4.60
   2   9  13    5.90    4.60
  -3  -9 -13    9.40    3.90
  -3  -9 -13    5.70    7.10
   3   9  13   11.50    5.40
   2   3 -14   41.80    4.20
   1   3 -14   66.29    5.60
   1   3 -14   67.29    6.40
   0   3 -14   23.30    4.10
   0   3 -14   15.70    3.30
   0  -3  14   35.30    5.60
  -1   3 -14    0.10    3.60
  -1   3 -14    6.40    3.90
   1  -3  14    1.40    3.80
   2   2 -14   13.70    3.30
   2   2 -14   10.20    2.10
   1   2 -14    6.30    2.10
   1   2 -14    7.20    2.90
  -1  -2  14    3.10    3.60
   0   2 -14    2.00    2.50
   0   2 -14    2.40    2.10
   0  -2  14    6.70    3.80
  -1   2 -14   10.50    3.70
  -1   2 -14    7.50    3.00
   1  -2  14   11.60    4.10
  -2   2 -14   89.79    7.70
  -2   2 -14   85.09    8.20
   2  -2  14   83.09    7.90
  -3   2 -14   92.39    9.00
   3  -2  14  103.99    9.20
   2   1 -14   -0.40    2.40
   2   1 -14   -0.10    1.30
   1   1 -14   18.10    3.50
   1   1 -14   11.80    2.20
  -1  -1  14   23.40    4.30
   0   1 -14   38.20    4.40
   0   1 -14   24.40    3.30
   0  -1  14   38.20    5.20
  -1   1 -14    2.00    2.10
  -1   1 -14   -0.50    1.80
   1  -1  14    6.60    3.40
  -2   1 -14   30.30    4.90
  -2   1 -14   34.50    4.80
   2  -1  14   27.60    4.90
  -3   1 -14    2.20    3.50
  -3   1 -14    1.90    4.30
   3  -1  14    7.40    3.80
  -2   0  14   -1.60    2.90
   1   0 -14   14.60    3.10
   1   0 -14    9.50    1.90
  -1   0  14   22.20    4.20
   0   0 -14    0.50    2.00
   0   0 -14   -1.00    1.50
   0   0  14    1.90    2.90
  -1   0 -14    4.60    2.40
  -1   0 -14    3.00    2.00
   1   0  14    4.50    3.00
  -2   0 -14   40.50    5.30
  -2   0 -14   47.10    5.00
   2   0  14   50.39    6.00
  -3   0 -14   74.69    7.60
  -3   0 -14   70.19    6.60
   3   0  14   76.29    6.90
  -4   0 -14   20.30    5.70
  -4   0 -14   15.00    4.40
   4   0  14   15.20    4.00
  -2   1  14   22.70    4.30
   1  -1 -14    6.80    2.40
   1  -1 -14    3.00    1.60
  -1   1  14    6.90    3.20
   0  -1 -14    5.20    1.90
   0  -1 -14    7.60    2.40
   0   1  14    6.50    3.10
  -1  -1 -14    7.90    2.30
  -1  -1 -14    5.80    2.40
   1   1  14    7.60    3.20
  -2  -1 -14   20.60    3.40
  -2  -1 -14   18.30    3.90
   2   1  14   27.50    4.50
  -3  -1 -14    6.60    3.00
  -3  -1 -14    9.80    4.00
   3   1  14    5.20    2.50
  -4  -1 -14   12.40    4.30
  -4  -1 -14    3.90    4.50
   4   1  14   16.90    3.70
   3  -2 -14   11.10    4.20
  -2   2  14   38.00    5.10
  -1   2  14   28.10    4.30
   0  -2 -14    9.30    2.60
   0  -2 -14    5.80    2.00
   0   2  14    9.70    3.20
  -1  -2 -14   26.20    3.40
  -1  -2 -14   35.40    4.10
   1   2  14   39.00    4.90
  -2  -2 -14    1.70    2.00
  -2  -2 -14    3.50    3.00
   2   2  14   -0.60    2.40
  -3  -2 -14   18.90    4.70
  -3  -2 -14   18.50    3.40
   3   2  14   22.10    3.70
  -4  -2 -14   11.50    4.80
  -4  -2 -14   10.80    3.90
   4   2  14   16.00    3.60
  -5  -2 -14   17.70    7.10
  -5  -2 -14   10.70    5.00
   5   2  14   12.20    4.00
   3  -3 -14   25.50    4.60
   3  -3 -14   27.30    3.90
  -3   3  14   34.40    6.30
   2  -3 -14   16.10    3.20
   2  -3 -14   20.40    3.90
  -2   3  14   20.30    5.40
  -1   3  14   26.80    4.40
   0  -3 -14    9.40    2.30
   0  -3 -14    9.40    2.80
   0   3  14   11.40    3.40
  -1  -3 -14   12.50    2.90
  -1  -3 -14   25.00    3.70
   1   3  14   26.70    4.40
  -2  -3 -14   34.20    4.30
  -2  -3 -14   36.30    4.90
   2   3  14   40.40    4.90
  -3  -3 -14   30.10    4.20
  -3  -3 -14   28.70    5.30
   3   3  14   32.50    4.40
  -4  -3 -14    0.50    2.50
  -4  -3 -14    2.70    4.30
   4   3  14    0.40    2.50
  -5  -3 -14    9.10    6.40
  -5  -3 -14   11.30    4.60
   5   3  14   16.30    4.00
   2  -4 -14   12.90    3.30
   2  -4 -14   13.50    3.30
  -2   4  14   15.60    5.50
   1  -4 -14   63.99    5.60
  -1   4  14   81.99    8.00
  -1   4  14   83.29    7.30
   0   4  14  105.19    8.60
   0   4  14  106.99    8.10
  -1  -4 -14   47.30    5.20
  -1  -4 -14   62.19    5.60
   1   4  14   47.70    5.20
  -2  -4 -14    2.50    2.20
  -2  -4 -14    2.50    3.50
   2   4  14    4.00    2.60
  -3  -4 -14   21.40    4.90
  -3  -4 -14   22.00    3.70
   3   4  14   16.50    3.30
  -4  -4 -14    8.00    2.80
  -4  -4 -14    7.50    4.90
   4   4  14   19.70    3.90
  -5  -4 -14   10.10    4.60
  -5  -4 -14   12.40    7.00
   5   4  14   13.40    3.80
   2  -5 -14    5.70    3.30
   2  -5 -14    1.30    3.30
  -2   5  14   -3.50    3.90
   1  -5 -14    3.80    2.70
   1  -5 -14    3.40    2.90
  -1   5  14    3.20    3.60
   0  -5 -14   12.20    3.10
   0   5  14   19.80    4.40
   0   5  14   15.50    3.80
  -1  -5 -14   49.60    6.00
  -1  -5 -14   45.00    5.20
   1   5  14   64.99    6.90
   1   5  14   54.39    5.80
  -2  -5 -14   -0.20    2.20
  -2  -5 -14    2.50    3.50
   2   5  14    0.30    2.10
   2   5  14    0.50    3.30
  -3  -5 -14   25.60    5.60
  -3  -5 -14   29.20    4.30
   3   5  14   28.70    4.20
  -4  -5 -14   19.30    5.90
  -4  -5 -14   11.00    3.20
   4   5  14   13.80    3.30
  -5  -5 -14   11.90    4.40
   5   5  14   13.10    3.70
   1  -6 -14    0.50    3.30
   1  -6 -14   -2.20    2.60
  -1   6  14    7.20    4.20
   0  -6 -14   15.00    4.10
   0  -6 -14   22.80    5.30
   0   6  14   19.90    5.10
  -1  -6 -14   20.00    5.10
   1   6  14   23.20    5.00
   1   6  14   18.60    3.60
  -2  -6 -14    8.50    3.00
  -2  -6 -14    9.40    4.60
   2   6  14    8.60    4.00
   2   6  14    6.00    2.70
  -3  -6 -14   -0.30    2.50
  -3  -6 -14    0.80    4.40
   3   6  14    0.70    3.60
   3   6  14   -1.10    2.30
  -4  -6 -14    8.40    5.70
  -4  -6 -14    4.40    3.00
   4   6  14    6.30    4.70
   4   6  14    9.40    3.10
  -5  -6 -14    4.00    4.20
   0  -7 -14   12.30    5.40
   0  -7 -14   11.50    4.00
   0   7  14   13.20    4.90
  -1  -7 -14   99.69    9.80
  -1  -7 -14   99.29    8.30
   1   7  14   77.69    8.20
  -2  -7 -14   18.90    5.90
   2   7  14   22.30    3.90
   2   7  14   14.40    4.70
  -3  -7 -14   19.20    4.40
  -3  -7 -14   21.60    6.40
   3   7  14   21.40    5.40
   3   7  14   16.90    3.60
  -4  -7 -14   23.70    6.80
  -4  -7 -14   21.90    4.70
   4   7  14   19.30    4.10
   4   7  14   35.30    6.20
  -1  -8 -14   25.10    5.20
  -1  -8 -14   31.10    7.20
   1   8  14   44.20    7.20
  -2  -8 -14   20.30    6.90
  -2  -8 -14   18.60    4.70
   2   8  14   19.00    5.50
  -3  -8 -14   31.30    7.60
  -3  -8 -14   27.20    5.00
  -3  -8 -14   21.20    5.00
   3   8  14   31.60    6.40
   0  -2  15    6.10    4.20
   1   1 -15   27.70    4.40
  -1  -1  15   34.10    5.40
   0   1 -15   21.40    3.20
   0   1 -15   28.40    4.50
   0  -1  15   47.50    6.20
  -1   1 -15    1.20    2.70
  -1   1 -15    6.50    2.90
   1  -1  15    9.10    4.10
  -2   1 -15    6.80    4.40
  -2   1 -15    7.90    4.00
   2  -1  15   13.50    5.10
  -2   0  15    0.60    4.20
   1   0 -15   31.80    4.40
  -1   0  15   31.00    5.40
   0   0 -15    8.60    2.30
   0   0 -15   10.80    3.00
   0   0  15   17.20    4.40
  -1   0 -15   17.50    3.20
  -1   0 -15   17.20    3.40
   1   0  15   23.40    4.90
  -2   0 -15   21.70    3.90
  -2   0 -15   17.90    4.60
   2   0  15   26.50    5.10
  -3   0 -15   30.80    5.60
  -3   0 -15   22.10    5.70
   3   0  15   38.30    6.10
   2  -1 -15    5.30    2.20
  -2   1  15   14.20    4.30
   1  -1 -15    1.50    3.00
   1  -1 -15   -0.10    1.70
  -1   1  15    4.90    3.70
   0  -1 -15   35.80    4.40
   0  -1 -15   24.10    3.20
   0   1  15   48.00    5.80
  -1  -1 -15   18.80    3.70
  -1  -1 -15   11.00    2.70
   1   1  15   17.50    4.30
  -2  -1 -15   11.80    3.10
  -2  -1 -15    6.30    3.60
   2   1  15   15.80    4.30
  -3  -1 -15   13.00    3.60
  -3  -1 -15   20.10    5.30
   3   1  15   15.10    4.10
   2  -2 -15    0.40    2.10
  -2   2  15   -0.60    3.70
   1  -2 -15    2.20    1.90
  -1   2  15    6.50    3.60
   0  -2 -15    1.10    2.20
   0  -2 -15    1.50    2.00
   0   2  15    0.30    3.20
  -1  -2 -15   -1.60    2.20
  -1  -2 -15    3.20    2.30
   1   2  15    0.80    3.10
  -2  -2 -15    9.20    3.80
  -2  -2 -15    3.40    2.40
   2   2  15    8.90    3.20
  -3  -2 -15  122.39   10.20
  -3  -2 -15  108.79    8.10
   3   2  15  128.79    9.20
  -4  -2 -15   67.69    7.40
  -4  -2 -15   64.09    8.10
   4   2  15   68.29    7.10
  -1   3  15   28.60    5.00
   0  -3 -15   66.99    6.60
   0   3  15   73.79    7.00
  -1  -3 -15   41.80    4.60
  -1  -3 -15   53.19    5.40
   1   3  15   57.09    6.20
  -2  -3 -15    9.00    3.10
  -2  -3 -15   10.30    4.00
   2   3  15   20.30    3.70
  -3  -3 -15   21.50    5.70
  -3  -3 -15   20.90    4.00
   3   3  15   26.50    4.50
  -4  -3 -15   11.00    4.10
  -4  -3 -15   13.60    5.50
   4   3  15   15.80    4.10
   1  -4 -15   16.20    3.60
   1  -4 -15   23.00    4.30
  -1   4  15   15.40    4.30
   0  -4 -15    6.10    2.60
   0   4  15    8.70    3.80
  -1  -4 -15    3.10    2.50
  -1  -4 -15   -4.60    2.10
   1   4  15    2.10    3.10
  -2  -4 -15   19.10    4.70
  -2  -4 -15   22.40    4.00
   2   4  15   17.40    3.50
  -3  -4 -15   32.40    4.80
  -3  -4 -15   30.80    6.10
   3   4  15   36.10    4.90
  -4  -4 -15   20.90    6.10
  -4  -4 -15   12.60    4.10
   4   4  15   16.70    3.80
   1  -5 -15   20.00    4.70
  -1   5  15   24.20    5.70
   0  -5 -15   17.40    3.80
   0   5  15   25.60    4.80
   0   5  15   21.30    5.10
  -1  -5 -15   30.40    5.50
   1   5  15   39.10    5.10
  -2  -5 -15   15.60    3.50
  -2  -5 -15   12.80    4.90
   2   5  15   21.40    3.80
  -3  -5 -15   -2.00    2.50
  -3  -5 -15    8.20    5.20
   3   5  15    3.80    3.00
  -4  -5 -15    8.30    4.00
  -4  -5 -15   -0.20    5.40
   4   5  15    3.20    3.00
   0  -6 -15    2.10    3.60
   0  -6 -15    2.20    5.00
   0   6  15    6.10    4.80
  -1  -6 -15    5.70    4.80
   1   6  15    5.40    4.70
   1   6  15    1.60    2.90
  -2  -6 -15   13.10    3.90
  -2  -6 -15   29.60    6.20
   2   6  15   17.20    4.00
   2   6  15   24.40    5.40
  -3  -6 -15    1.80    3.10
  -3  -6 -15    5.30    5.10
   3   6  15    0.50    2.70
   2   7  15   58.89    7.70
   0  -2 -16   15.90    4.00
   0  -2 -16    8.50    3.20
   0   2  16   19.00    5.20
  -1  -2 -16    8.10    3.40
  -1  -2 -16   13.00    3.70
   1   2  16    3.40    4.10
  -2  -2 -16   -1.30    4.40
   2   2  16    3.60    4.50
  -1  -3 -16   63.29    6.40
  -1  -3 -16   40.20    5.30
   1   3  16   50.49    6.40
  -2  -3 -16    9.40    5.00
  -2  -3 -16    4.60    3.50
   2   3  16    3.30    3.60
  -1  -4 -16   11.10    4.10
  -1  -4 -16   19.10    4.40
   1   4  16   20.80    5.10
  -2  -4 -16    1.30    3.00
   2   4  16   -0.60    3.60
   0   0   0    0.00    0.00

_computing_structure_solution     'SHELXT 2018/2 (Sheldrick, 2018)'
;
_shelx_hkl_checksum              8033
_olex2_submission_special_instructions 'No special instructions were received'

